    76
C76-Td                                                                          
 C    -0.35830  -2.57650  -2.85540     1     6    47     2
 C    -0.94110  -3.28720  -1.79300     2     3     1     9
 C    -2.21620  -2.82160  -1.43720     3     4    46     2
 C    -2.65230  -2.88920  -0.13560     4     5     3    13
 C    -1.84150  -3.35960   0.85710     5     4    14    10
 C     1.00220  -2.40260  -2.93940     6     7    55     1
 C     1.81020  -2.88350  -1.94480     7     6     8    74
 C     1.28570  -3.53560  -0.86080     8     7    18     9
 C    -0.08930  -3.78740  -0.75170     9    10     8     2
 C    -0.56890  -3.78360   0.56330    10     5     9    20
 C    -3.46850  -1.23260   1.33810    11    13    24    12
 C    -2.65950  -1.70580   2.34210    12    14    30    11
 C    -3.47390  -1.81260   0.09990    13    11    33     4
 C    -1.83880  -2.77080   2.09620    14    12    15     5
 C    -0.56620  -2.80630   2.60630    15    14    20    16
 C    -0.08960  -1.77710   3.43640    16    15    17    29
 C     1.28950  -1.53070   3.31100    17    66    21    16
 C     2.09400  -3.20780   0.23430    18    19     8    69
 C     1.57290  -3.15350   1.52050    19    20    21    18
 C     0.23350  -3.46730   1.66670    20    19    15    10
 C     2.09410  -2.18630   2.36370    21    19    71    17
 C    -3.11860   2.21230   0.44050    22    34    28    23
 C    -3.71840   0.94870   0.31790    23    24    22    32
 C    -3.56360   0.13260   1.44920    24    11    25    23
 C    -2.80720   0.49360   2.57060    25    27    30    24
 C    -0.94800   1.75900   3.26800    26    27    31    41
 C    -2.17860   1.72680   2.62590    27    28    25    26
 C    -2.35500   2.58770   1.55680    28    27    43    22
 C    -0.95650  -0.65860   3.69840    29    30    31    16
 C    -2.22590  -0.65900   3.11170    30    12    29    25
 C    -0.35580   0.60730   3.80640    31    67    26    29
 C    -3.72540   0.33340  -0.98040    32    36    33    23
 C    -3.57470  -1.05960  -1.04000    33    13    46    32
 C    -2.59700   2.86960  -0.64370    34    35    22    37
 C    -2.60110   2.27100  -1.87090    35    34    36    38
 C    -3.13110   1.02060  -2.04740    36    35    44    32
 C    -1.51640   3.60940  -0.22240    37    40    43    34
 C    -1.51290   2.41000  -2.69860    38    39    50    35
 C    -0.44180   3.14860  -2.27870    39    38    40    51
 C    -0.43570   3.75440  -1.04690    40    37    64    39
 C     0.06980   2.61990   2.82490    41    60    42    26
 C    -0.06020   3.46010   1.70750    42    43    41    63
 C    -1.33680   3.44510   1.12730    43    37    28    42
 C    -2.36760   0.38380  -3.03480    44    45    36    50
 C    -2.17930  -0.98840  -3.03050    45    47    44    46
 C    -2.81430  -1.70020  -2.02570    46    45    33     3
 C    -0.94300  -1.44960  -3.44800    47    45    49     1
 C    -0.05600   0.81630  -3.78300    48    50    49    52
 C     0.08580  -0.58120  -3.83570    49    55    47    48
 C    -1.33620   1.25680  -3.41780    50    38    48    44
 C     0.83410   2.73140  -2.57510    51    39    56    52
 C     1.07840   1.58320  -3.34590    52    53    51    48
 C     2.25140   0.89200  -3.01070    53    54    52    59
 C     2.35330  -0.47010  -3.13610    54    55    53    73
 C     1.27540  -1.19850  -3.54060    55    54    49     6
 C     1.64050   3.12130  -1.49850    56    58    64    51
 C     3.05390   2.30210   0.19910    57    58    75    62
 C     2.76000   2.37840  -1.15370    58    59    57    56
 C     3.05880   1.26790  -1.92690    59    58    72    53
 C     1.25270   1.98970   3.13070    60    61    67    41
 C     2.32470   2.14200   2.29280    61    60    62    68
 C     2.23910   2.91610   1.16500    62    61    63    57
 C     1.07160   3.61760   0.83710    63    64    62    42
 C     0.83560   3.74240  -0.53570    64    40    63    56
 C     2.89090  -0.13640   2.64410    65    68    66    71
 C     1.81830  -0.27820   3.48820    66    67    17    65
 C     1.00160   0.78200   3.73250    67    66    31    60
 C     3.14950   1.06830   2.04660    68    65    75    61
 C     3.08550  -2.31730  -0.19790    69    74    18    70
 C     3.57950  -1.29050   0.62080    70    71    69    76
 C     3.08440  -1.29530   1.93120    71    65    21    70
 C     3.60640   0.10420  -1.37320    72    73    59    76
 C     3.17280  -0.94760  -2.13870    73    74    72    54
 C     2.90610  -2.14770  -1.55070    74    73    69     7
 C     3.60190   1.13600   0.75490    75    68    76    57
 C     3.85070  -0.01870   0.00490    76    75    72    70
