    96
C96-D3-136                                                                      
 C     4.69690   0.38310   1.29740     1     3     7     2
 C     4.71310   1.31970   0.28600     2     4    16     1
 C     4.70110  -0.92600   0.99230     3     1    25    50
 C     4.70390   0.93400  -0.99900     4     2     5    49
 C     3.92520   1.60410  -1.89950     5     4    70    14
 C     2.46020   2.60870   2.42300     6     8    10    21
 C     3.91390   0.83050   2.32080     7     8     1    23
 C     3.55750   2.09090   1.94070     8     6     7    16
 C     0.51770   3.44720   2.24110     9    11    10    30
 C     1.73240   3.47160   1.67410    10     9     6    19
 C    -0.52970   3.79950   1.55710    11     9    39    20
 C     1.64690   1.89530  -3.32360    12    88    71    13
 C     1.86130   2.86400  -2.34170    13    12    17    14
 C     3.07750   2.70430  -1.58280    14    15     5    13
 C     3.11880   3.12400  -0.22990    15    19    14    16
 C     3.95120   2.38550   0.65480    16     2     8    15
 C     0.66430   3.48190  -1.83860    17    18    13    91
 C     0.78440   3.94360  -0.48590    18    20    19    17
 C     1.95960   3.72150   0.29690    19    15    10    18
 C    -0.42000   4.05050   0.20180    20    96    11    18
 C     1.64730   1.91060   3.29650    21    30     6    22
 C     1.86410   0.57740   3.64020    22    21    26    23
 C     3.07710   0.00070   3.12110    23    24     7    22
 C     3.11880  -1.38040   2.80780    24    28    23    25
 C     3.94340  -1.78200   1.72050    25     3    44    24
 C     0.66970  -0.16840   3.92290    26    27    22    33
 C     0.78990  -1.56950   3.64590    27    29    28    26
 C     1.96280  -2.14080   3.05700    28    24    42    27
 C    -0.41270  -2.21940   3.39670    29    38    40    27
 C     0.40890   2.47130   3.21270    30    21     9    32
 C    -1.96970   2.35230   2.88130    31    35    39    32
 C    -0.79000   1.83530   3.51180    32    30    33    31
 C    -0.67880   0.46120   3.89820    33    32    37    26
 C    -3.95840   1.88910   1.58530    34    82    87    35
 C    -3.12450   1.57450   2.69630    35    31    36    34
 C    -3.08350   0.22250   3.11680    36    35    48    37
 C    -1.87010  -0.30990   3.67560    37    38    33    36
 C    -1.65100  -1.66100   3.43430    38    29    46    37
 C    -1.74300   3.34110   1.89030    39    11    85    31
 C    -0.51540  -3.27250   2.50770    40    41    47    29
 C     0.52710  -3.68990   1.85090    41    40    42    65
 C     1.74160  -3.20810   2.15060    42    41    43    28
 C     2.47850  -3.43670   1.03580    43    44    42    52
 C     3.57090  -2.75680   0.82160    44    43    51    25
 C    -3.55660  -1.93750   2.09500    45    46    48    61
 C    -2.46170  -2.41980   2.61820    46    45    47    38
 C    -1.73140  -3.33750   1.94200    47    40    46    63
 C    -3.93240  -0.65180   2.37590    48    83    45    36
 C     4.70400  -0.40940  -1.30500    49    50    60     4
 C     4.70420  -1.33150  -0.32580    50    49    51     3
 C     3.93590  -2.45250  -0.45890    51    50    44    55
 C     1.65790  -3.84490  -0.00090    52    65    43    54
 C     0.67970  -3.33490  -2.10920    53    57    54    68
 C     1.87820  -3.46900  -1.32580    54    52    53    55
 C     3.09000  -2.72950  -1.57000    55    59    51    54
 C    -0.41020  -1.85340  -3.62880    56    69    76    57
 C     0.79100  -2.39400  -3.18450    57    56    58    53
 C     1.96340  -1.59710  -3.38550    58    59    72    57
 C     3.12200  -1.76140  -2.60440    59    58    55    60
 C     3.94370  -0.61580  -2.40790    60    49    70    59
 C    -3.94850  -2.32510   0.83470    61    78    45    62
 C    -3.11200  -3.13590   0.01070    62    63    66    61
 C    -1.95660  -3.69370   0.58890    63    62    47    64
 C    -0.77910  -3.98530  -0.17110    64    65    63    68
 C     0.41870  -4.05130   0.52480    65    52    41    64
 C    -3.08200  -2.82420  -1.37070    66    62    80    67
 C    -1.86480  -3.05090  -2.10690    67    69    68    66
 C    -0.67190  -3.62790  -1.55410    68    64    67    53
 C    -1.65000  -2.16340  -3.15990    69    56    74    67
 C     3.55990   0.64500  -2.80520    70    71     5    60
 C     2.46330   0.79440  -3.49240    71    70    72    12
 C     1.72750  -0.28230  -3.85930    72    77    71    58
 C    -3.56360  -0.87460  -2.74510    73    74    80    92
 C    -2.46680  -1.08130  -3.41860    74    73    75    69
 C    -1.73910  -0.03510  -3.87570    75    76    74    89
 C    -0.52280  -0.55680  -4.09700    76    77    75    56
 C     0.51730   0.22240  -4.12680    77    76    72    88
 C    -4.72790  -1.30500   0.38990    78    79    61    83
 C    -4.71670  -1.02300  -0.92380    79    78    80    84
 C    -3.93290  -1.75330  -1.76340    80    79    73    66
 C    -4.71620   1.27840  -0.42300    81    84    86    82
 C    -4.73240   0.98570   0.92210    82    83    34    81
 C    -4.73000  -0.29080   1.32570    83    82    48    78
 C    -4.71430   0.29220  -1.33970    84    81    92    79
 C    -2.47120   3.47560   0.75650    85    87    39    96
 C    -3.92760   2.37490  -0.64350    86    87    81    94
 C    -3.56700   2.78020   0.60630    87    85    86    34
 C     0.40630   1.55070  -3.77130    88    12    77    90
 C    -1.96650   1.31640  -3.50970    89    93    75    90
 C    -0.79300   2.12610  -3.37260    90    88    91    89
 C    -0.68420   3.14440  -2.37350    91    90    95    17
 C    -3.95330   0.41820  -2.45590    92    84    73    93
 C    -3.12360   1.53830  -2.73970    93    89    94    92
 C    -3.08690   2.57690  -1.77820    94    93    86    95
 C    -1.87650   3.33460  -1.59560    95    96    91    94
 C    -1.65710   3.80750  -0.30720    96    20    85    95
