    96
C96-C1-98                                                                       
 C     0.96510   3.29620  -2.35110     1     2     8    59
 C     2.12850   2.65590  -2.58120     2     1     3     7
 C     3.08810   2.84660  -1.59430     3     4     2    58
 C     4.08820   1.97310  -1.39980     4     3     5    12
 C     4.13720   0.84610  -2.13710     5     4    13     6
 C     3.13300   0.57640  -3.04380     6    23     5     7
 C     2.07910   1.43950  -3.33710     7     6     2    19
 C    -0.19930   2.89120  -2.92150     8     1    73     9
 C    -0.35350   1.68300  -3.64000     9     8    18    19
 C     4.79810   0.78990   0.49180    10    12    26    11
 C     4.89840  -0.35920  -0.26590    11    13    29    10
 C     4.38840   1.94660  -0.06910    12    10     4    36
 C     4.55180  -0.31730  -1.57750    13    14     5    11
 C     3.85000  -1.33700  -2.12410    14    13    15    23
 C     3.50830  -2.46760  -1.39280    15    16    14    28
 C     2.38550  -3.09100  -1.83320    16    15    51    24
 C    -2.66710   1.84920  -2.92390    17    91    72    18
 C    -1.65940   1.12200  -3.61300    18    17     9    94
 C     0.81700   0.88690  -3.79450    19     9     7    21
 C    -0.68620  -1.14300  -3.75160    20    94    95    21
 C     0.65020  -0.56050  -3.85490    21    22    19    20
 C     1.78080  -1.35160  -3.45080    22    23    24    21
 C     2.97620  -0.78220  -3.07750    23     6    22    14
 C     1.57010  -2.58140  -2.86300    24    96    22    16
 C     3.36600  -1.50800   2.51660    25    27    32    30
 C     4.36160   0.46660   1.73350    26    10    27    34
 C     4.26640  -0.91140   1.73660    27    25    29    26
 C     3.81470  -2.54040  -0.00160    28    29    15    31
 C     4.53000  -1.43330   0.49600    29    11    27    28
 C     2.69630  -2.63710   2.13070    30    25    45    31
 C     2.87280  -3.20050   0.86720    31    30    52    28
 C     2.58460  -0.77280   3.34470    32    25    38    33
 C     2.63260   0.62190   3.34900    33    37    32    34
 C     3.50010   1.30190   2.47640    34    33    26    35
 C     3.04520   2.53430   1.87250    35    36    55    34
 C     3.53330   2.79080   0.58980    36    12    58    35
 C     1.44750   1.19310   3.68230    37    33    54    41
 C     1.43270  -1.50150   3.57230    38    40    45    32
 C    -0.98540  -1.55620   3.62260    39    40    43    48
 C     0.24500  -0.92550   3.93960    40    38    41    39
 C     0.31750   0.46160   4.02640    41    67    37    40
 C    -3.23180  -1.12460   2.79480    42    49    78    43
 C    -2.14430  -0.70150   3.55640    43    42    66    39
 C     0.34760  -3.29520   2.38980    44    45    50    48
 C     1.49050  -2.65280   2.81800    45    38    44    30
 C    -1.90540  -3.78090   0.86080    46    53    47    82
 C    -2.08550  -3.09750   2.05250    47    46    49    48
 C    -0.94100  -2.78710   2.83620    48    47    44    39
 C    -3.20420  -2.27470   2.05230    49    42    47    85
 C     0.50880  -3.97690   1.14250    50    53    44    52
 C     1.58410  -3.83420  -1.01220    51    86    16    52
 C     1.73650  -3.87470   0.38100    52    51    31    50
 C    -0.66560  -4.16570   0.43100    53    90    46    50
 C     1.02630   2.39350   3.15000    54    60    37    55
 C     1.75120   3.07790   2.18150    55    54    35    56
 C     0.94660   3.81570   1.22310    56    57    55    63
 C     1.52130   3.93020  -0.07420    57    58    59    56
 C     2.76070   3.42130  -0.35480    58    57    36     3
 C     0.66770   3.95930  -1.15180    59    65    57     1
 C    -0.33290   2.43400   3.26430    60    54    62    67
 C    -2.43200   2.72330   2.33690    61    69    62    68
 C    -1.12570   3.18470   2.42700    62    60    61    63
 C    -0.50980   3.86900   1.34510    63    62    64    56
 C    -1.34480   4.02430   0.17860    64    65    70    63
 C    -0.67150   4.02100  -1.03720    65    59    73    64
 C    -2.01010   0.71840   3.65460    66    67    68    43
 C    -0.76790   1.24140   3.83860    67    41    66    60
 C    -2.86920   1.54920   2.95180    68    79    66    61
 C    -3.21240   2.91100   1.22400    69    70    61    74
 C    -2.68610   3.53850   0.12410    70    69    71    64
 C    -3.18840   3.03370  -1.07900    71    72    76    70
 C    -2.40220   2.96620  -2.18880    72    73    71    17
 C    -1.19150   3.45670  -2.17340    73    72     8    65
 C    -4.13450   1.86750   1.15140    74    79    75    69
 C    -4.59890   1.33790  -0.05160    75    76    74    81
 C    -4.07760   1.98190  -1.16350    76    91    71    75
 C    -4.57000  -0.82040   1.00810    77    78    85    81
 C    -4.10610  -0.25850   2.16280    78    79    77    42
 C    -3.90870   1.06500   2.23100    79    78    68    74
 C    -4.48530  -0.69180  -1.33820    80    92    83    81
 C    -4.82450  -0.05730  -0.13920    81    80    77    75
 C    -2.71140  -3.55430  -0.26160    82    84    89    46
 C    -3.96530  -1.96180  -1.39300    83    80    84    87
 C    -3.76720  -2.70180  -0.24410    84    82    85    83
 C    -4.04460  -2.09350   0.94820    85    84    77    49
 C     0.37880  -3.90280  -1.62640    86    90    51    96
 C    -3.07750  -2.02220  -2.47060    87    88    93    83
 C    -2.01510  -2.87370  -2.49870    88    87    89    95
 C    -1.90380  -3.69320  -1.36810    89    90    82    88
 C    -0.71720  -4.13660  -0.93450    90    86    89    53
 C    -3.75080   1.29250  -2.31250    91    92    17    76
 C    -3.92900  -0.01930  -2.39420    92    91    80    93
 C    -3.00940  -0.79330  -3.06690    93    87    92    94
 C    -1.83320  -0.28870  -3.67300    94    93    18    20
 C    -0.82850  -2.47110  -3.17770    95    96    88    20
 C     0.33060  -3.09420  -2.73740    96    24    86    95
