    96
C96-C1-64                                                                       
 C    -0.13590  -4.01800   1.15220     1     2     8    54
 C     0.98010  -3.68610   1.82760     2     1     3     7
 C     2.13760  -3.72800   1.07130     3     4     2    53
 C     3.22670  -3.02620   1.41880     4     3     5    12
 C     3.16040  -2.17600   2.46600     5     4    13     6
 C     1.97890  -2.00800   3.14250     6     5    22     7
 C     0.83440  -2.75870   2.90830     7     6     2    19
 C    -1.37090  -3.63920   1.56520     8     1    71     9
 C    -1.61580  -2.73060   2.62090     9     8    18    19
 C     4.60760  -1.52970   0.26590    10    12    29    11
 C     4.59320  -0.69860   1.36030    11    13    15    10
 C     3.90690  -2.67800   0.29010    12    10     4    35
 C     3.83160  -1.00430   2.43590    13     5    11    23
 C     3.60280   2.65630   0.80860    14    96    16    31
 C     4.65510   0.58370   0.92870    15    11    30    16
 C     3.97620   1.60560   1.61350    16    14    15    26
 C    -3.71310  -2.30470   1.45290    17    73    70    18
 C    -2.84330  -2.02160   2.54510    18    91     9    17
 C    -0.44110  -2.19980   3.25760    19     7     9    20
 C    -0.48630  -0.83120   3.75780    20    92    19    21
 C     0.75220  -0.05210   3.82430    21    22    24    20
 C     1.93950  -0.69060   3.55030    22    21     6    23
 C     3.08740  -0.05480   3.07940    23    13    26    22
 C     0.80500   1.37160   3.62170    24    94    21    25
 C     1.94560   2.04470   3.01810    25    26    95    24
 C     3.12070   1.29140   2.72640    26    23    25    16
 C     3.45560  -0.11340  -2.75360    27    36    28    33
 C     3.91850  -1.17370  -2.00020    28    27    29    34
 C     4.64350  -0.77970  -0.85920    29    10    30    28
 C     4.76540   0.54840  -0.46510    30    32    29    15
 C     3.75790   2.64650  -0.58230    31    32    47    14
 C     4.27740   1.56060  -1.23280    32    30    31    33
 C     3.64090   1.21820  -2.40350    33    32    46    27
 C     3.11630  -2.36770  -1.98100    34    35    28    38
 C     3.18230  -3.10180  -0.79480    35    53    12    34
 C     2.30800  -0.18590  -3.48400    36    27    37    40
 C     1.53710  -1.33270  -3.51760    37    39    36    38
 C     1.88270  -2.46620  -2.73270    38    37    34    51
 C     0.22200  -1.08880  -3.82440    39    49    37    45
 C     1.77190   1.09970  -3.59520    40    46    44    36
 C     0.07720   3.99490  -1.38680    41    61    90    42
 C     0.67390   3.33580  -2.45180    42    41    48    43
 C    -0.20410   2.48180  -3.19560    43    44    42    63
 C     0.42380   1.33550  -3.77570    44    45    40    43
 C    -0.30880   0.19440  -3.96790    45    65    44    39
 C     2.58450   1.94980  -2.91390    46    40    48    33
 C     2.72800   3.39010  -1.12020    47    86    31    48
 C     2.06790   3.07180  -2.31090    48    46    47    42
 C    -0.79920  -1.91760  -3.46670    49    39    55    50
 C    -0.59050  -3.03600  -2.67240    50    49    59    51
 C     0.77670  -3.30730  -2.27540    51    52    50    38
 C     0.95500  -3.96010  -1.02450    52    53    54    51
 C     2.11740  -3.82130  -0.32490    53    52    35     3
 C    -0.16010  -4.18040  -0.24460    54    60    52     1
 C    -1.96920  -1.18600  -3.47750    55    57    49    65
 C    -3.88870  -0.46670  -2.39050    56    67    57    66
 C    -3.07720  -1.53750  -2.76920    57    55    56    58
 C    -2.98280  -2.68020  -1.94680    58    69    57    59
 C    -1.73550  -3.39050  -1.88640    59    60    50    58
 C    -1.42590  -3.95110  -0.65060    60    54    71    59
 C    -1.24830   3.89580  -1.04130    61    41    62    80
 C    -2.17250   3.15480  -1.76190    62    61    84    63
 C    -1.62920   2.40690  -2.88070    63    64    62    43
 C    -2.33870   1.22050  -3.23230    64    66    65    63
 C    -1.63670   0.13990  -3.73570    65    45    64    55
 C    -3.50130   0.86960  -2.57720    66    64    85    56
 C    -4.66770  -0.49920  -1.27890    67    68    56    77
 C    -4.59750  -1.58370  -0.46650    68    67    69    73
 C    -3.77810  -2.62570  -0.78540    69    68    70    58
 C    -3.32470  -3.10860   0.41180    70    71    69    17
 C    -2.18390  -3.74280   0.46990    71    70     8    60
 C    -4.65200  -0.17160   1.41170    72    73    75    79
 C    -4.57400  -1.40240   0.89510    73    72    17    68
 C    -3.63420   1.49690   2.32690    74    76    75    78
 C    -3.86070   0.15550   2.47630    75    72    74    91
 C    -2.54670   2.01510   2.86730    76    74    81    93
 C    -4.76110   0.75370  -0.75840    77    79    67    85
 C    -4.13340   1.96940   1.12510    78    79    74    83
 C    -4.78410   0.92470   0.58290    79    78    77    72
 C    -1.34890   4.08620   0.33220    80    82    89    61
 C    -1.95740   3.08880   2.29540    81    76    87    82
 C    -2.37780   3.56800   1.04940    82    80    83    81
 C    -3.43910   2.94480   0.38320    83    82    78    84
 C    -3.34330   2.73240  -1.04590    84    85    62    83
 C    -4.01990   1.61610  -1.53770    85    77    66    84
 C     2.04670   3.91660  -0.07670    86    90    47    96
 C    -0.65020   3.08650   2.73200    87    88    81    94
 C     0.35680   3.68700   2.04830    88    87    89    95
 C    -0.06540   4.21290   0.82280    89    90    80    88
 C     0.76930   4.24980  -0.22460    90    86    89    41
 C    -2.90870  -0.71310   3.08010    91    18    75    92
 C    -1.72670  -0.13440   3.63830    92    93    20    91
 C    -1.61860   1.25820   3.53630    93    94    76    92
 C    -0.43480   1.94940   3.48490    94    93    24    87
 C     1.67330   3.20530   2.20550    95    96    88    25
 C     2.52320   3.42810   1.11960    96    14    86    95
