    96
C96-C1-117                                                                      
 C     2.49970   3.54140  -0.64870     1     2    12    61
 C     1.49360   3.96240   0.17760     2     1     3     9
 C     0.27660   4.16390  -0.46290     3     4     2    58
 C    -0.91630   4.14210   0.16970     4     3     5    21
 C    -0.98260   3.89670   1.52010     5     4     6    10
 C    -2.19000   3.32660   1.89100     6     7    22     5
 C    -2.24390   2.40330   2.89650     7     8    26     6
 C    -1.14390   2.07510   3.53360     8     7    79    11
 C     1.51120   3.59190   1.55590     9     2    10    14
 C     0.22730   3.57870   2.20540    10    11     5     9
 C     0.06040   2.66470   3.24420    11    17     8    10
 C     3.55890   2.77920  -0.20260    12    63     1    13
 C     3.62550   2.29910   1.10700    13    12    19    14
 C     2.58510   2.71210   2.01760    14    16    13     9
 C     2.91370   0.59160   3.17130    15    18    16    90
 C     2.27820   1.81540   3.08470    16    17    15    14
 C     1.01750   1.79910   3.63730    17    11    16    92
 C     3.87200   0.20250   2.26550    18    19    15    96
 C     4.26380   1.01550   1.23460    19    18    20    13
 C     4.67130   0.30270   0.09370    20    64    94    19
 C    -1.90900   3.76120  -0.73340    21    23    41     4
 C    -3.20520   3.01450   1.02020    22    24     6    23
 C    -3.09410   3.18590  -0.35760    23    21    22    28
 C    -3.85380   1.93100   1.55560    24    25    26    22
 C    -4.49100   1.09460   0.76340    25    24    37    27
 C    -3.21570   1.47960   2.67380    26     7    24    39
 C    -4.48370   1.27850  -0.60780    27    30    25    28
 C    -3.70000   2.27030  -1.23310    28    23    27    29
 C    -3.00890   1.90220  -2.44920    29    32    40    28
 C    -4.65010   0.04350  -1.12500    30    31    27    33
 C    -4.04150  -0.27850  -2.28400    31    30    34    32
 C    -3.21370   0.60600  -2.91310    32    31    42    29
 C    -4.68590  -0.86910  -0.09260    33    36    37    30
 C    -3.56650  -1.53300  -2.46670    34    35    31    47
 C    -3.66910  -2.45090  -1.48060    35    56    34    36
 C    -4.18870  -2.09550  -0.26780    36    33    35    85
 C    -4.50420  -0.24450   1.09580    37    33    25    38
 C    -3.75090  -0.80860   2.17140    38    39    37    84
 C    -3.07740   0.10900   3.01330    39    38    26    80
 C    -1.75630   2.47660  -2.79920    40    41    29    44
 C    -1.28060   3.45950  -1.92100    41    58    21    40
 C    -2.22270  -0.13850  -3.53810    42    43    47    32
 C    -0.98450   0.36450  -3.85810    43    42    50    44
 C    -0.73840   1.75830  -3.54560    44    45    43    40
 C     0.62060   2.17710  -3.45260    45    46    44    57
 C     1.62360   1.24640  -3.70980    46    59    51    45
 C    -2.43120  -1.47540  -3.23420    47    34    42    48
 C    -1.39480  -2.40080  -3.12600    48    47    54    49
 C    -0.08380  -1.97620  -3.50440    49    48    50    53
 C     0.08250  -0.60220  -3.93090    50    51    43    49
 C     1.35960  -0.10540  -3.88420    51    50    46    67
 C     0.79380  -3.61180  -1.95280    52    55    71    53
 C     1.06900  -2.65760  -2.92800    53    52    66    49
 C    -1.58070  -3.40050  -2.12990    54    55    56    48
 C    -0.48180  -3.93510  -1.55310    55    54    52    78
 C    -2.69330  -3.34400  -1.29080    56    35    54    76
 C     1.00530   3.22070  -2.55740    57    58    61    45
 C     0.04290   3.77510  -1.78490    58    57    41     3
 C     2.89000   1.35020  -3.20980    59    60    62    46
 C     3.22160   2.33030  -2.34310    60    61    59    63
 C     2.27620   3.21670  -1.99390    61    60    57     1
 C     3.38700   0.09930  -3.03680    62    65    59    67
 C     4.03010   2.07360  -1.28500    63    64    60    12
 C     4.54660   0.83980  -1.13980    64    63    20    65
 C     4.23350  -0.15860  -2.01720    65    62    68    64
 C     2.35840  -2.07450  -2.83500    66    67    53    69
 C     2.45930  -0.81640  -3.41870    67    62    51    66
 C     4.17020  -1.34810  -1.36810    68    65    94    69
 C     3.27360  -2.36420  -1.73780    69    68    72    66
 C     0.84090  -4.25770   0.13520    70    73    78    71
 C     1.65630  -3.86150  -0.89620    71    70    52    72
 C     2.87770  -3.23370  -0.70080    72    71    69    75
 C     1.16550  -3.98020   1.39180    73    70    74    87
 C     2.35260  -3.38380   1.65060    74    73    93    75
 C     3.27920  -2.99910   0.66060    75    74    95    72
 C    -2.61680  -3.56820   0.08850    76    77    85    56
 C    -1.48440  -4.00010   0.68130    77    76    78    88
 C    -0.45130  -4.28920  -0.21530    78    70    55    77
 C    -0.97610   0.78490   3.96710    79    92     8    80
 C    -1.88010  -0.27000   3.68480    80    79    39    82
 C     0.11810  -1.70920   3.77800    81    86    91    82
 C    -1.30800  -1.57820   3.53160    82    80    81    83
 C    -1.97630  -2.51910   2.63470    83    84    88    82
 C    -3.19510  -2.11620   1.97740    84    85    38    83
 C    -3.48630  -2.71890   0.72960    85    36    76    84
 C     0.79700  -2.75010   3.15520    86    87    93    81
 C     0.18410  -3.59950   2.29300    87    86    88    73
 C    -1.16410  -3.53410   1.98670    88    87    77    83
 C     2.85390  -1.58900   3.03590    89    93    90    96
 C     2.27470  -0.54480   3.65730    90    89    91    15
 C     0.94410  -0.57760   4.05990    91    92    90    81
 C     0.37080   0.64100   4.10080    92    91    79    17
 C     2.13480  -2.67850   2.79680    93    89    74    86
 C     4.51690  -1.08570  -0.04410    94    95    68    20
 C     4.06800  -1.87230   0.97670    95    94    96    75
 C     3.81660  -1.18520   2.16220    96    89    18    95
