    96
C96-C1-22                                                                       
 C    -0.84320   2.94370   2.59380     1    17     2    58
 C    -1.92160   2.11540   2.77940     2     1    56     8
 C    -2.61580  -0.20240   3.08360     3    10     4     8
 C    -3.79220   0.14890   2.36760     4    57     5     3
 C    -4.52480  -0.73860   1.59450     5     6    23     4
 C    -4.08550  -1.98710   1.48220     6     5    11    24
 C    -0.23110   0.39530   3.61260     7    20    15     8
 C    -1.62680   0.79370   3.33310     8     3     2     7
 C    -0.86970  -1.93370   3.23460     9    12    10    15
 C    -2.23000  -1.56880   3.02890    10     3    11     9
 C    -3.02170  -2.40440   2.19520    11     6    14    10
 C    -0.46520  -3.11220   2.59240    12    96    13     9
 C    -1.26720  -3.77370   1.68770    13    14    45    12
 C    -2.48950  -3.42050   1.47080    14    13    11    25
 C     0.17390  -1.00060   3.54280    15     9     7    16
 C     1.58060  -1.36290   3.26670    16    94    95    15
 C     0.42840   2.60840   2.96480    17     1    63    20
 C     3.01930   1.95020   2.58460    18    91    62    19
 C     2.18920   1.01290   3.26570    19    94    18    20
 C     0.81680   1.35830   3.46290    20    17    19     7
 C    -4.97400  -0.69820  -0.70730    21    22    29    23
 C    -4.42440  -1.92970  -0.83370    22    24    21    38
 C    -5.07010  -0.08730   0.53010    23    28     5    21
 C    -4.06860  -2.62650   0.25250    24    25    22     6
 C    -3.03460  -3.47550   0.20970    25    24    14    44
 C    -4.51530   1.97180  -0.40220    26    48    28    27
 C    -4.33460   1.34340  -1.62620    27    29    36    26
 C    -4.78160   1.21990   0.68340    28    26    23    57
 C    -4.50380   0.02690  -1.75590    29    27    21    30
 C    -3.59180  -0.71070  -2.48540    30    38    29    34
 C    -0.09780  -0.28510  -3.63840    31    32    33    51
 C     1.04910  -1.04060  -3.52020    32    43    31    68
 C    -1.35360  -0.96240  -3.37290    33    34    31    42
 C    -2.49630  -0.13970  -3.15640    34    30    33    35
 C    -2.36060   1.28180  -3.08660    35    36    50    34
 C    -3.32070   1.95490  -2.28440    36    27    49    35
 C    -2.43860  -2.79660  -2.01730    37    38    42    44
 C    -3.55650  -1.96800  -1.92440    38    30    22    37
 C     1.44140  -4.05550  -1.07460    39    82    90    40
 C     0.12420  -3.93990  -1.57150    40    46    39    41
 C    -0.08710  -2.99560  -2.63230    41    43    42    40
 C    -1.33650  -2.34250  -2.82310    42    41    37    33
 C     1.06030  -2.34220  -3.06970    43    83    32    41
 C    -2.20350  -3.68990  -0.91260    44    46    25    37
 C    -0.51880  -4.28740   0.68680    45    86    13    46
 C    -0.91950  -4.18220  -0.66730    46    44    40    45
 C    -1.82240   3.58910  -1.67220    47    49    53    52
 C    -3.64610   2.99620  -0.31630    48    26    49    55
 C    -3.00610   3.04710  -1.53520    49    47    36    48
 C    -1.08210   1.88680  -3.22340    50    52    51    35
 C     0.08520   1.15060  -3.52490    51    50    31    70
 C    -0.87890   3.08530  -2.52410    52    72    47    50
 C    -1.21100   4.18260  -0.62560    53    47    59    54
 C    -1.74250   4.01460   0.65830    54    58    55    53
 C    -2.93970   3.33430   0.85190    55    54    48    56
 C    -3.06020   2.40170   1.95050    56    57     2    55
 C    -3.99230   1.39760   1.81150    57    56     4    28
 C    -0.75240   3.89050   1.57640    58    54    61     1
 C     0.12980   4.23470  -0.91420    59    60    53    72
 C     1.10470   4.28950   0.02910    60    59    66    61
 C     0.57370   4.09060   1.31130    61    63    58    60
 C     2.52220   3.08780   2.02260    62    63    18    67
 C     1.27190   3.40590   2.23450    63    62    61    17
 C     3.67130   2.25020  -1.55250    64    73    75    65
 C     2.62120   3.16300  -1.52260    65    64    71    66
 C     2.38940   3.82920  -0.25940    66    60    67    65
 C     3.14710   3.35830   0.82230    67    76    62    66
 C     2.31070  -0.50910  -3.30850    68    69    32    78
 C     2.52250   0.83420  -3.11670    69    68    73    70
 C     1.41200   1.70420  -3.18960    70    69    71    51
 C     1.52040   2.92190  -2.40900    71    72    65    70
 C     0.33790   3.53600  -2.09900    72    52    71    59
 C     3.63950   1.12250  -2.33760    73    64    69    80
 C     4.90300   0.66620  -0.56500    74    75    80    77
 C     4.47250   1.95400  -0.46610    75    76    74    64
 C     4.14420   2.46450   0.73760    76    67    75    91
 C     4.94530  -0.12950   0.55210    77    84    92    74
 C     3.10580  -1.48580  -2.72800    78    83    68    79
 C     4.15960  -1.20560  -1.86730    79    80    78    85
 C     4.43250   0.13810  -1.73760    80    74    79    73
 C     3.46080  -3.12510  -0.63100    81    85    89    82
 C     2.52080  -3.42510  -1.59620    82    83    39    81
 C     2.32670  -2.58270  -2.60610    83    82    78    43
 C     4.62780  -1.44350   0.46970    84    77    85    87
 C     4.31180  -2.05180  -0.73570    85    81    84    79
 C     0.74960  -4.17190   1.11680    86    90    45    96
 C     3.92320  -1.75520   1.65010    87    88    93    84
 C     3.02100  -2.76590   1.73470    88    87    89    95
 C     2.89140  -3.52580   0.55940    89    90    81    88
 C     1.74020  -4.15740   0.25980    90    86    89    39
 C     4.10340   1.62920   1.83060    91    92    18    76
 C     4.47020   0.35530   1.73870    92    91    77    93
 C     3.75070  -0.61150   2.39270    93    92    87    94
 C     2.57700  -0.34790   3.15590    94    19    93    16
 C     1.88260  -2.61110   2.58490    95    96    88    16
 C     0.81030  -3.40490   2.26660    96    12    95    86
