    96
C96-C2-80                                                                       
 C    -1.36640   1.98910   3.37350     1    10    51     2
 C    -1.79080   0.69460   3.66220     2     1     6     3
 C    -3.06840   0.31700   3.11980     3     4    72     2
 C    -3.32250  -1.03150   2.76780     4     8     3     5
 C    -4.20610  -1.27870   1.67730     5    49    24     4
 C    -0.72050  -0.23010   3.91620     6     7     2    13
 C    -1.03950  -1.58650   3.58580     7     9     6     8
 C    -2.28860  -1.96220   2.98930     8     4    22     7
 C     0.04910  -2.39490   3.29390     9    18    20     7
 C    -0.06120   2.37720   3.33150    10     1    62    12
 C     2.27950   1.94310   3.01740    11    15    19    12
 C     1.02920   1.56400   3.60990    12    10    13    11
 C     0.70620   0.20380   3.92070    13    12    17     6
 C     4.20940   1.26130   1.70450    14    91    96    15
 C     3.31130   1.00930   2.78480    15    11    16    14
 C     3.05170  -0.34370   3.11940    16    15    28    17
 C     1.77070  -0.72160   3.65280    17    18    13    16
 C     1.35350  -2.01100   3.34420    18     9    26    17
 C     2.23310   3.01820   2.08860    19    61    94    11
 C     0.00530  -3.41260   2.36490    20    21    27     9
 C    -1.09480  -3.66460   1.71800    21    20    22    42
 C    -2.23360  -3.02760   2.05370    22    21    23     8
 C    -3.00970  -3.13000   0.94620    23    24    22    32
 C    -3.99970  -2.28730   0.76250    24    23    31     5
 C     3.18580  -2.48550   1.96660    25    26    28    38
 C     2.04170  -2.83610   2.48040    26    25    27    18
 C     1.19180  -3.61490   1.77530    27    20    26    40
 C     3.75220  -1.29320   2.31810    28    92    25    16
 C    -4.68490   0.26020  -1.33050    29    37    30    50
 C    -4.88380  -0.66420  -0.35660    30    29    31    49
 C    -4.32700  -1.90720  -0.50750    31    24    30    34
 C    -2.26600  -3.63470  -0.10300    32    42    23    33
 C    -2.45550  -3.21980  -1.41060    33    32    45    34
 C    -3.55490  -2.30370  -1.62330    34    36    31    33
 C    -2.29820  -1.35550  -3.37720    35    36    70    46
 C    -3.43300  -1.32190  -2.62650    36    35    37    34
 C    -3.97400  -0.04310  -2.43680    37    29    69    36
 C     3.49400  -2.85360   0.67660    38    84    25    39
 C     2.54550  -3.48040  -0.17780    39    40    38    87
 C     1.34860  -3.92800   0.40090    40    39    27    41
 C     0.14490  -4.04820  -0.34220    41    42    40    44
 C    -1.05070  -4.00330   0.38070    42    32    21    41
 C     1.30030  -3.08650  -2.29150    43    87    88    44
 C     0.06730  -3.61920  -1.70750    44    41    43    45
 C    -1.25460  -3.21560  -2.19820    45    46    33    44
 C    -1.26760  -2.27730  -3.21280    46    89    45    35
 C    -4.58270   0.98510   1.29210    47    49    72    48
 C    -4.40410   1.92070   0.29180    48    50    53    47
 C    -4.82100  -0.29080   0.96450    49    47     5    30
 C    -4.42580   1.56310  -1.00040    50    48    29    54
 C    -2.04960   2.81780   2.50470    51    52    59     1
 C    -3.19320   2.47500   1.98370    52    51    72    53
 C    -3.49650   2.84160   0.69100    53    48    52    56
 C    -3.51780   2.10330  -1.88050    54    50    69    55
 C    -2.52810   3.05830  -1.52990    55    54    56    66
 C    -2.54530   3.46660  -0.15940    56    58    53    55
 C    -0.14540   4.02500  -0.31130    57    60    58    67
 C    -1.35040   3.90270   0.43450    58    56    59    57
 C    -1.18880   3.59020   1.80860    59    62    51    58
 C     1.04760   3.97500   0.42180    60    78    61    57
 C     1.09120   3.65390   1.76370    61    62    19    60
 C    -0.00580   3.40070   2.40610    62    61    59    10
 C     1.25380   3.21090  -2.16140    63    68    77    67
 C     0.11560   1.75060  -3.69300    64    68    83    65
 C    -1.17080   2.10000  -3.32360    65    64    71    66
 C    -1.29640   3.08460  -2.27590    66    55    65    67
 C    -0.07150   3.60910  -1.68110    67    57    66    63
 C     1.27050   2.26990  -3.17730    68    64    63    73
 C    -3.29940   1.12010  -2.82270    69    71    54    37
 C    -1.73450  -0.19500  -3.88140    70    79    35    71
 C    -2.15240   1.09110  -3.53430    71    69    70    65
 C    -3.75390   1.28340   2.33020    72    47    52     3
 C     2.29800   1.34560  -3.35190    73    75    82    68
 C     3.97860   0.05010  -2.41460    74    93    75    80
 C     3.42930   1.32740  -2.59890    75    73    74    76
 C     3.55010   2.30450  -1.59210    76    75    95    77
 C     2.45080   3.21290  -1.37110    77    78    63    76
 C     2.26840   3.61700  -0.06250    78    60    77    94
 C    -0.45110  -0.48360  -4.12480    79    83    70    89
 C     3.29790  -1.10940  -2.81610    80    81    86    74
 C     2.14970  -1.09030  -3.52810    81    80    82    88
 C     1.72730   0.19940  -3.86420    82    83    73    81
 C     0.45060   0.48410  -4.11420    83    79    82    64
 C     4.40580  -1.93270   0.28640    84    85    38    92
 C     4.43170  -1.56820  -1.00480    85    84    93    86
 C     3.52110  -2.10100  -1.88600    86    85    80    87
 C     2.53380  -3.05910  -1.54390    87    86    39    43
 C     1.16390  -2.10000  -3.33740    88    89    81    43
 C    -0.11800  -1.75250  -3.71950    89    46    79    88
 C     4.89040   0.65980  -0.34330    90    93    95    91
 C     4.82700   0.28240   0.97660    91    92    14    90
 C     4.59290  -0.99640   1.28670    92    91    28    84
 C     4.70110  -0.26280  -1.31800    93    74    90    85
 C     3.01670   3.12000   0.98760    94    96    19    78
 C     4.32260   1.89880  -0.47680    95    96    90    76
 C     4.00230   2.27720   0.79340    96    94    95    14
