    96
C96-C1-54                                                                       
 C    -2.72100  -2.98160   1.71920     1     7    67     2
 C    -3.15800  -1.82280   2.34870     2     1    10     3
 C    -4.15030  -1.03160   1.67150     3     4    68     2
 C    -4.19520   0.36440   1.87060     4     6     5     3
 C    -4.58170   1.21760   0.81850     5    49    19     4
 C    -3.24280   0.89350   2.72430     6    17     4    11
 C    -1.50530  -3.55560   1.91990     7     1    73     8
 C    -0.52880  -3.04580   2.77150     8     7    15     9
 C    -0.84980  -1.80030   3.41530     9     8    10    13
 C    -2.16490  -1.23630   3.20450    10    11     2     9
 C    -2.26890   0.13590   3.35540    11    10     6    28
 C     1.54280  -1.36240   3.42710    12    14    29    13
 C     0.25890  -0.91590   3.73100    13    12    27     9
 C     1.81240  -2.55860   2.80650    14    15    12    94
 C     0.80140  -3.40560   2.45010    15    14    16     8
 C     1.08640  -4.12970   1.29250    16    74    91    15
 C    -2.73560   2.16520   2.57750    17    18     6    21
 C    -3.09360   2.96920   1.52360    18    20    19    17
 C    -3.99350   2.46150   0.63310    19    18     5    35
 C    -2.10700   3.76970   1.04410    20    18    24    33
 C    -1.46710   2.19680   3.12340    21    28    23    17
 C     0.88170   2.71910   2.88200    22    23    26    31
 C    -0.47900   3.06960   2.71150    23    21    24    22
 C    -0.86930   3.86810   1.63880    24    45    20    23
 C     3.06910   2.71840   1.80580    25    32    85    26
 C     1.83080   3.33020   1.98550    26    25    44    22
 C     0.11440   0.50760   3.78720    27    28    13    31
 C    -1.17870   0.95270   3.61850    28    21    27    11
 C     2.59980  -0.51820   3.16650    29    12    30    88
 C     2.46130   0.85630   3.18160    30    29    32    31
 C     1.19590   1.42110   3.46750    31    30    27    22
 C     3.38190   1.51050   2.38460    32    25    30    90
 C    -1.93350   3.95810  -0.31760    33    38    34    20
 C    -2.71540   3.33430  -1.25260    34    33    35    42
 C    -3.82960   2.66520  -0.73870    35    36    19    34
 C    -4.37360   1.59540  -1.35280    36    35    37    49
 C    -3.74920   1.09440  -2.44600    37    50    36    43
 C    -0.62540   4.22250  -0.52100    38    33    40    45
 C     1.38150   3.77510  -1.54620    39    40    58    46
 C     0.03150   3.83040  -1.68000    40    39    38    41
 C    -0.63900   2.98910  -2.61460    41    40    42    60
 C    -2.03630   2.80270  -2.40210    42    43    41    34
 C    -2.59500   1.65160  -2.92830    43    37    42    62
 C     1.35950   4.07300   0.85530    44    45    46    26
 C     0.03140   4.26470   0.70840    45    44    24    38
 C     2.06070   3.98760  -0.33680    46    86    44    39
 C    -4.83550  -0.59650  -0.62770    47    49    68    48
 C    -4.26270  -1.08650  -1.78510    48    50    57    47
 C    -4.88150   0.72930  -0.41930    49    47     5    36
 C    -3.68890  -0.23690  -2.65780    50    48    37    51
 C    -2.50640  -0.55340  -3.26780    51    50    62    55
 C     0.25740  -2.90260  -2.79140    52    53    71    54
 C     1.63510  -2.74680  -2.66370    53    66    79    52
 C    -0.46730  -1.80420  -3.37000    54    55    52    65
 C    -1.87130  -1.78770  -3.11760    55    51    54    56
 C    -2.50810  -2.72560  -2.22250    56    70    57    55
 C    -3.67530  -2.27690  -1.55810    57    48    69    56
 C     2.15870   2.94210  -2.30370    58    39    81    59
 C     1.58200   1.96290  -3.13900    59    58    60    63
 C     0.16680   1.96500  -3.30400    60    59    61    41
 C    -0.46090   0.71030  -3.66060    61    62    65    60
 C    -1.82520   0.63600  -3.48190    62    61    51    43
 C     2.33770   0.76160  -3.28200    63    64    83    59
 C     1.66360  -0.47180  -3.51660    64    66    65    63
 C     0.25400  -0.54620  -3.69430    65    64    61    54
 C     2.30450  -1.61350  -3.02950    66    53    77    64
 C    -3.09450  -3.30060   0.42550    67    69    72     1
 C    -4.52790  -1.46880   0.37540    68    69    47     3
 C    -3.93420  -2.53470  -0.22690    69    67    68    57
 C    -1.71310  -3.66890  -1.55250    70    71    56    72
 C    -0.35380  -3.81070  -1.86350    71    70    75    52
 C    -2.08010  -3.93710  -0.20390    72    73    67    70
 C    -1.17170  -4.22150   0.75730    73    74    72     7
 C     0.07760  -4.45450   0.43670    74    73    16    75
 C     0.49810  -4.32230  -0.85580    75    80    74    71
 C     4.09790  -0.45230  -2.06620    76    77    83    95
 C     3.47300  -1.58430  -2.29510    77    76    78    66
 C     3.48820  -2.58810  -1.38280    78    79    77    92
 C     2.40810  -3.35000  -1.68280    79    80    78    53
 C     1.82160  -4.07790  -0.75440    80    79    75    91
 C     3.34830   2.79230  -1.64440    81    82    86    58
 C     4.06830   1.68130  -1.77910    82    81    83    87
 C     3.58230   0.70510  -2.58800    83    82    76    63
 C     4.55670   1.67410   0.50860    84    87    85    90
 C     3.81460   2.80700   0.65300    85    86    84    25
 C     3.25870   3.39780  -0.42580    86    46    85    81
 C     4.73470   1.11400  -0.71600    87    95    84    82
 C     3.51610  -1.18800   2.34460    88    94    89    29
 C     4.35880  -0.53280   1.46740    89    88    90    96
 C     4.31400   0.85130   1.57220    90    84    89    32
 C     2.23120  -3.94920   0.55210    91    80    16    93
 C     4.00080  -2.40950  -0.07170    92    93    78    96
 C     3.25900  -3.09650   0.91720    93    94    91    92
 C     3.01110  -2.43180   2.10480    94    88    93    14
 C     4.74190  -0.23410  -0.86450    95    87    76    96
 C     4.60410  -1.14760   0.19620    96    95    92    89
