    96
C96-C1-18                                                                       
 C    -2.11740   1.59570   3.26570     1    71    16     2
 C    -2.96990   0.50780   3.07530     2     1     8    69
 C    -2.93040  -1.88610   2.58910     3     4    11     8
 C    -3.98800  -1.65690   1.69050     4     5    70     3
 C    -4.15320  -2.38250   0.52970     5     6    21     4
 C    -3.24920  -3.33270   0.20810     6    12     5    22
 C    -0.98900  -0.82260   3.75480     7     9    18     8
 C    -2.37590  -0.77180   3.32220     8     2     3     7
 C    -0.27350  -1.96770   3.44590     9    96    10     7
 C    -0.79700  -2.97940   2.68290    10    11     9    30
 C    -2.08240  -2.97380   2.24920    11    10    12     3
 C    -2.24420  -3.64610   1.04280    12     6    11    32
 C     1.59910   3.40420   1.82500    13    78    73    14
 C     1.22740   2.61160   2.90950    14    15    13    92
 C    -0.12430   2.60750   3.14110    15    14    16    72
 C    -0.79520   1.51440   3.64780    16    18     1    15
 C     1.30370   0.32660   3.75640    17    95    18    92
 C    -0.14220   0.33570   3.91260    18    16     7    17
 C    -4.19490  -1.70740  -1.70870    19    38    20    21
 C    -3.22820  -2.62880  -1.99760    20    22    19    29
 C    -4.67580  -1.57700  -0.43480    21    49     5    19
 C    -2.77580  -3.46330  -1.06220    22    20    23     6
 C    -1.47790  -3.85630  -1.03640    23    22    32    27
 C     1.78840  -2.78990  -2.34180    24    25    26    45
 C     3.07300  -2.60850  -1.80430    25    86    35    24
 C     0.85040  -3.54390  -1.59100    26    24    27    34
 C    -0.51530  -3.45950  -1.97680    27    23    26    28
 C    -0.97300  -2.49200  -2.95200    28    29    46    27
 C    -2.32630  -2.11800  -2.89150    29    20    39    28
 C     0.25620  -3.56590   1.99340    30    88    31    10
 C     0.12770  -4.05270   0.70020    31    32    30    34
 C    -1.15720  -4.07580   0.27990    32    31    23    12
 C     2.46120  -3.49690   0.34140    33    35    34    90
 C     1.20510  -3.89590  -0.20450    34    31    33    26
 C     3.40750  -2.95020  -0.50500    35    33    25    84
 C    -3.39780   1.64900  -2.45670    36    50    37    42
 C    -4.25520   0.66290  -1.98970    37    38    36    48
 C    -3.93080  -0.60120  -2.45330    38    19    37    39
 C    -2.78090  -0.85990  -3.20610    39    41    29    38
 C    -0.53510  -0.19470  -3.79690    40    41    44    46
 C    -1.89900   0.11160  -3.60120    41    39    42    40
 C    -2.27140   1.39140  -3.23020    42    64    41    36
 C     1.71210   0.60330  -3.59380    43    44    66    47
 C     0.39130   0.90810  -3.70930    44    43    63    40
 C     1.31950  -1.77400  -3.26450    45    47    46    24
 C    -0.05420  -1.55380  -3.50050    46    45    28    40
 C     2.18350  -0.69330  -3.45510    47    87    43    45
 C    -4.78040   0.79800  -0.66920    48    52    49    37
 C    -4.91300  -0.35130   0.10180    49    21    48    70
 C    -3.11550   2.77190  -1.74690    50    51    36    53
 C    -3.62410   2.91060  -0.51370    51    50    54    52
 C    -4.40510   1.92430   0.04190    52    51    48    68
 C    -1.85840   3.22800  -2.05140    53    50    64    56
 C    -2.84560   3.51150   0.42400    54    51    67    55
 C    -1.57150   4.04130   0.16130    55    54    74    56
 C    -1.03410   3.90230  -1.16290    56    53    58    55
 C     0.92240   3.02710  -2.46960    57    65    63    58
 C     0.35980   3.82190  -1.39950    58    62    56    57
 C     4.15950   2.09430  -0.88910    59    82    60    76
 C     3.09150   2.91080  -1.25340    60    61    59    65
 C     2.46000   3.51160  -0.20110    61    62    60    78
 C     1.17790   3.97190  -0.28010    62    61    73    58
 C     0.00260   2.20560  -3.22610    63    64    44    57
 C    -1.33860   2.37830  -3.00480    64    63    42    53
 C     2.28520   2.61840  -2.39090    65    66    60    57
 C     2.65940   1.44910  -3.04550    66    80    43    65
 C    -3.16950   2.88060   1.59980    67    71    68    54
 C    -4.07580   1.88360   1.39120    68    67    52    69
 C    -4.02680   0.69120   2.12320    69    70    68     2
 C    -4.50590  -0.40090   1.44820    70    69     4    49
 C    -2.23650   2.75340   2.53770    71    67    72     1
 C    -1.02950   3.33980   2.39720    72    71    15    74
 C     0.66180   4.00820   0.99570    73    74    62    13
 C    -0.66890   4.01540   1.23830    74    73    72    55
 C     4.98960   0.50660   0.42570    75    79    81    76
 C     4.44230   1.76420   0.44400    76    75    77    59
 C     3.64530   2.21920   1.49320    77    78    76    91
 C     2.73180   3.16990   1.12490    78    13    77    61
 C     4.66320  -0.32420   1.44760    79    75    83    93
 C     3.74010   0.69360  -2.69860    80    82    66    87
 C     5.06020   0.04740  -0.86080    81    82    75    85
 C     4.53770   1.02060  -1.64950    82    81    80    59
 C     4.40690  -1.64520   1.18130    83    89    84    79
 C     4.42300  -2.09960  -0.10210    84    85    83    35
 C     4.75100  -1.26690  -1.11970    85    84    86    81
 C     3.92060  -1.58110  -2.15430    86    87    85    25
 C     3.43960  -0.61350  -2.94790    87    86    47    80
 C     1.40960  -3.03120   2.43450    88    30    90    96
 C     3.47430  -2.08420   2.05030    89    83    90    94
 C     2.55430  -3.05550   1.70100    90    88    89    33
 C     3.28980   1.34640   2.57420    91    93    77    92
 C     2.02540   1.49610   3.25170    92    14    91    17
 C     3.83580   0.07020   2.47540    93    94    79    91
 C     3.13450  -1.02830   2.90210    94    93    95    89
 C     1.90750  -0.92950   3.51590    95    96    94    17
 C     1.08760  -2.01510   3.33330    96     9    95    88
