    96
C96-C2-15                                                                       
 C     2.94830   1.44020  -2.79110     1     2    59     5
 C     3.82390   0.38570  -2.52300     2    19    53     1
 C     0.79220   3.14810  -2.42830     3     8    58     4
 C     0.57230   2.07170  -3.26930     4     3    11     5
 C     1.68400   1.15390  -3.41670     5     6     1     4
 C     1.36210  -0.22920  -3.64160     6     7    18     5
 C     0.02710  -0.54140  -3.76060     7     6    12    24
 C    -0.22720   3.73680  -1.72140     8    65     3     9
 C    -1.56600   3.40010  -1.81600     9     8    16    10
 C    -1.90960   2.36530  -2.73950    10     9    14    11
 C    -0.80130   1.70560  -3.41030    11    12     4    10
 C    -1.00900   0.37350  -3.71470    12    35    11     7
 C    -3.94320   2.01900  -1.40640    13    15    91    14
 C    -3.15080   1.66630  -2.51940    14    13    34    10
 C    -3.48250   2.90320  -0.45720    15    16    13    96
 C    -2.33600   3.60420  -0.63940    16    15    17     9
 C    -1.66390   3.92310   0.53750    17    64    94    16
 C     2.20730  -1.28840  -3.22480    18    19     6    21
 C     3.45650  -0.93300  -2.72840    19    20     2    18
 C     4.15730  -1.69410  -1.82250    20    23    39    19
 C     1.62020  -2.51730  -2.73760    21    22    25    18
 C     2.31930  -3.16390  -1.72710    22    23    29    21
 C     3.54470  -2.77120  -1.29140    23    20    22    40
 C    -0.51150  -1.76920  -3.39980    24    31    25     7
 C     0.23680  -2.74560  -2.76720    25    24    21    27
 C    -1.87350  -3.35220  -1.64420    26    30    27    33
 C    -0.46830  -3.51530  -1.76820    27    26    28    25
 C     0.29960  -3.91520  -0.61830    28    29    46    27
 C     1.65610  -3.75790  -0.66750    29    28    44    22
 C    -2.43180  -3.58230  -0.38430    30    88    45    26
 C    -1.85390  -1.61160  -3.23510    31    24    33    35
 C    -3.80650  -1.88340  -1.99190    32    87    33    36
 C    -2.60980  -2.43050  -2.43740    33    31    32    26
 C    -3.28660   0.30930  -2.91520    34    35    36    14
 C    -2.17880  -0.28330  -3.45620    35    12    34    31
 C    -4.15030  -0.55070  -2.23030    36    92    32    34
 C     5.04070  -1.15210   0.29360    37    38    54    39
 C     4.36050  -2.21010   0.83340    38    40    42    37
 C     4.93800  -0.88350  -1.05250    39    53    20    37
 C     3.63720  -3.04040   0.04260    40    38    23    44
 C     1.86470  -1.58580   3.26450    41    50    43    57
 C     3.81710  -1.85750   2.03650    42    38    43    55
 C     2.62260  -2.41760   2.47830    43    41    42    48
 C     2.45730  -3.59430   0.44880    44    40    29    48
 C    -1.63660  -3.74990   0.73510    45    46    81    30
 C    -0.28270  -3.91250   0.68670    46    45    28    47
 C     0.49010  -3.51010   1.83270    47    48    46    49
 C     1.89220  -3.35610   1.70040    48    44    47    43
 C    -0.22020  -2.72120   2.81700    49    50    82    47
 C     0.52370  -1.73160   3.43430    50    41    49    73
 C     4.72480   1.40580  -0.58730    51    60    53    52
 C     4.78780   1.14770   0.76280    52    54    51    67
 C     4.74940   0.39090  -1.48630    53    51    39     2
 C     4.91750  -0.12660   1.19800    54    52    55    37
 C     4.15890  -0.52740   2.26530    55    54    42    56
 C     3.29530   0.34160   2.93150    56    57    55    66
 C     2.18250  -0.24830   3.47110    57    68    56    41
 C     1.97670   3.32850  -1.74340    58    59     3    63
 C     3.07060   2.54550  -1.91060    59    58    60     1
 C     3.90460   2.45830  -0.79130    60    51    61    59
 C     3.48830   2.92120   0.45920    61    62    67    60
 C     2.34220   3.61950   0.64130    62    61    63    71
 C     1.65870   3.92100  -0.53540    63    65    58    62
 C    -0.35100   4.19250   0.56460    64    65    17    72
 C     0.34910   4.18970  -0.56240    65    64    63     8
 C     3.16220   1.69670   2.52150    66    67    56    70
 C     3.95330   2.03710   1.40580    67    61    52    66
 C     1.01440   0.41290   3.73200    68    57    73    69
 C     0.81280   1.74450   3.41720    69    68    76    70
 C     1.92120   2.39840   2.73900    70    71    66    69
 C     1.56590   3.42910   1.81710    71    72    62    70
 C     0.22620   3.76010   1.73060    72    64    77    71
 C    -0.01870  -0.50450   3.78990    73    74    68    50
 C    -1.35360  -0.20030   3.66280    74    73    85    75
 C    -1.67520   1.18390   3.42660    75    74    79    76
 C    -0.56630   2.10580   3.27380    76    77    69    75
 C    -0.79910   3.18100   2.43590    77    72    94    76
 C    -3.81750   0.40080   2.53060    78    84    93    79
 C    -2.94380   1.45990   2.79630    79    78    95    75
 C    -3.52120  -2.76340   1.34050    80    83    81    88
 C    -2.30500  -3.15620   1.78910    81    80    45    82
 C    -1.60480  -2.49590   2.78860    82    81    49    85
 C    -4.14540  -1.67440   1.84280    83    80    89    84
 C    -3.44570  -0.91350   2.75390    84    83    78    85
 C    -2.20030  -1.26300   3.25560    85    84    74    82
 C    -5.04340  -1.16330  -0.27680    86    87    92    89
 C    -4.36070  -2.23090  -0.79270    87    88    32    86
 C    -3.62780  -3.03860   0.00510    88    87    80    30
 C    -4.93150  -0.88020   1.06540    89    93    83    86
 C    -4.72410   1.40970   0.58760    90    96    93    91
 C    -4.78770   1.14050  -0.76110    91    92    90    13
 C    -4.92530  -0.13600  -1.17960    92    91    36    86
 C    -4.74390   0.39750   1.49140    93    90    89    78
 C    -1.98480   3.35460   1.75560    94    95    77    17
 C    -3.07450   2.56640   1.91570    95    94    96    79
 C    -3.90960   2.46440   0.80010    96    90    95    15
