    96
C96-Cs-8                                                                        
 C    -4.78120   0.00010   1.79700     1     9     2     3
 C    -4.11480   1.07960   2.28130     2     4     1    20
 C    -5.29070  -0.00340   0.50840     3     8    53     1
 C    -4.04180   2.20320   1.56390     4     2     5    54
 C    -2.94790   2.97850   1.67580     5     4    60    18
 C    -4.52150  -2.20860   0.23230     6     8    29     7
 C    -4.04060  -2.18670   1.53740     7     9    15     6
 C    -5.08470  -1.09370  -0.28320     8     6     3    39
 C    -4.10190  -1.07300   2.27080     9     7     1    10
 C    -2.98310  -0.68210   2.99380    10    20     9    13
 C     0.65920  -2.75250   2.51570    11    32    31    12
 C     0.67380  -1.45400   3.20240    12    26    24    11
 C    -1.80490  -1.42810   3.11950    13    10    14    24
 C    -1.81170  -2.68370   2.44060    14    32    15    13
 C    -2.94050  -2.96170   1.62780    15     7    30    14
 C    -0.59140   3.99180   0.91860    16    80    59    17
 C    -0.58730   3.27260   2.13220    17    18    16    21
 C    -1.81250   2.68710   2.47890    18    17     5    19
 C    -1.80610   1.42190   3.14190    19    20    18    23
 C    -2.98910   0.68700   3.00620    20    10     2    19
 C     0.65730   2.74870   2.55050    21    17    94    22
 C     0.67470   1.44210   3.22120    22    25    23    21
 C    -0.56930   0.73440   3.41760    23    19    22    24
 C    -0.56870  -0.74490   3.40730    24    13    12    23
 C     1.89990   0.70770   3.22870    25    96    22    26
 C     1.90330  -0.72970   3.21800    26    27    12    25
 C     3.06540  -1.34240   2.69740    27    34    90    26
 C    -1.65000  -3.97870   0.03210    28    30    33    35
 C    -3.67420  -2.98280  -0.49330    29    30     6    37
 C    -2.81540  -3.54230   0.39720    30    28    29    15
 C     1.84660  -3.18900   1.82550    31    34    47    11
 C    -0.58800  -3.26490   2.08930    32    14    33    11
 C    -0.58440  -3.97330   0.87170    33    48    28    32
 C     3.03250  -2.52240   1.99520    34    31    27    92
 C    -1.21730  -3.83320  -1.25290    35    41    28    36
 C    -1.92010  -3.07080  -2.16920    36    35    37    45
 C    -3.23300  -2.64300  -1.79650    37    38    29    36
 C    -3.74500  -1.42070  -2.27250    38    40    39    37
 C    -4.67120  -0.67720  -1.53160    39     8    52    38
 C    -2.86050  -0.66760  -3.02720    40    46    50    38
 C     0.11940  -3.94300  -1.20870    41    35    43    48
 C     2.24110  -3.24650  -1.69940    42    43    75    49
 C     0.95150  -3.32900  -2.10810    43    42    41    44
 C     0.38880  -2.37260  -2.98880    44    43    45    74
 C    -1.04830  -2.28740  -2.99790    45    46    36    44
 C    -1.58510  -1.07860  -3.37220    46    45    68    40
 C     1.73560  -3.85020   0.56350    47    48    49    31
 C     0.51350  -4.12340   0.11730    48    47    33    41
 C     2.67570  -3.59550  -0.41390    49    93    47    42
 C    -2.85640   0.71610  -3.02050    50    61    40    51
 C    -3.74100   1.45390  -2.25000    51    50    52    56
 C    -4.67320   0.71310  -1.51300    52    53    39    51
 C    -5.09230   1.11360  -0.25650    53    54     3    52
 C    -4.52730   2.22380   0.26270    54    53    57     4
 C    -1.91600   3.09420  -2.13210    55    58    56    63
 C    -3.22870   2.67070  -1.75430    56    51    57    55
 C    -3.67610   3.00250  -0.45270    57    54    60    56
 C    -1.21910   3.84840  -1.20160    58    66    59    55
 C    -1.65880   4.00570   0.08110    59    60    16    58
 C    -2.82010   3.56780   0.44440    60    59    57     5
 C    -1.58220   1.12370  -3.36200    61    63    50    68
 C     0.39240   2.40770  -2.96670    62    65    63    72
 C    -1.04230   2.32790  -2.97540    63    61    55    62
 C     2.23900   3.26750  -1.67250    64    65    73    78
 C     0.94900   3.35580  -2.07300    65    64    66    62
 C     0.11670   3.95980  -1.16910    66    58    65    80
 C     0.60270   0.02100  -3.59270    67    68    72    74
 C    -0.78770   0.02270  -3.61700    68    61    46    67
 C     4.46540   0.00810  -1.85640    69    88    83    70
 C     3.33950   0.01380  -2.75160    70    76    71    69
 C     2.62840   1.24610  -2.91610    71    73    70    72
 C     1.25450   1.27520  -3.32660    72    71    67    62
 C     3.10160   2.31520  -2.13170    73    64    84    71
 C     1.25170  -1.23680  -3.33690    74    76    67    44
 C     3.10180  -2.28690  -2.14840    75    42    86    76
 C     2.62570  -1.21260  -2.92550    76    75    70    74
 C     3.80740   2.96790  -0.14060    77    78    81    84
 C     2.66080   3.60620  -0.38070    78    77    79    64
 C     1.72820   3.85650   0.60650    79    80    78    94
 C     0.50780   4.13630   0.15780    80    79    16    66
 C     4.04870   2.48100   1.10130    81    85    77    95
 C     5.26260   0.68080   0.14010    82    87    83    85
 C     4.83660   1.10130  -1.10500    83    84    69    82
 C     4.13760   2.22220  -1.24060    84    83    77    73
 C     4.77320   1.35040   1.24600    85    81    89    82
 C     4.14140  -2.20350  -1.25590    86    88    93    75
 C     5.27200  -0.67480   0.13950    87    82    88    91
 C     4.84220  -1.07930  -1.10500    88    86    69    87
 C     4.17940   0.65380   2.26430    89    90    85    96
 C     4.18740  -0.67750   2.25070    90    89    91    27
 C     4.79550  -1.37320   1.23600    91    92    90    87
 C     4.07950  -2.50350   1.08000    92    91    93    34
 C     3.82440  -2.97110  -0.16410    93    49    92    86
 C     1.84270   3.18870   1.86010    94    95    79    21
 C     3.01720   2.50650   2.02600    95    94    96    81
 C     3.06220   1.32450   2.71610    96    95    89    25
