    96
C96-D6d-187                                                                     
 C     2.85540   2.09340  -2.39620     1    16     5    17
 C     3.54240  -0.09940  -2.40450     2    54     5    19
 C    -0.31640  -1.40860  -3.48550     3    56    10     4
 C     1.07180  -0.97920  -3.48380     4    53     6     3
 C     2.67280   0.83470  -2.94590     5     1     2     6
 C     1.38750   0.43790  -3.47730     6     5    14     4
 C    -2.85850  -2.08510  -2.42680     7    55     9    61
 C    -3.53380   0.11500  -2.41920     8    11     9    62
 C    -2.66560  -0.82070  -2.96390     9     7     8    10
 C    -1.37770  -0.41850  -3.48470    10     9    13     3
 C    -3.23680   1.43760  -2.41910    11     8    12    91
 C    -2.05020   1.90800  -2.96070    12    11    27    13
 C    -1.05670   0.99490  -3.48240    13    12    14    10
 C     0.32730   1.42530  -3.47650    14    15     6    13
 C     0.61960   2.73800  -2.94740    15    28    16    14
 C     1.86130   3.01250  -2.39760    16     1    15    23
 C     3.69660   2.35800  -1.31270    17    18    24     1
 C     4.40870   1.36920  -0.70570    18    17    19    20
 C     4.37990   0.14950  -1.31310    19    18    31     2
 C     4.40480   1.37410   0.68360    20    26    29    18
 C    -0.19390   4.38180  -1.33160    21    22    95    28
 C     1.01690   4.50550  -0.71390    22    23    21    89
 C     2.06300   3.86500  -1.31040    23    22    24    16
 C     3.14030   3.39500  -0.60980    24    23    17    25
 C     3.13900   3.39090   0.78150    25    26    90    24
 C     3.71490   2.31920   1.38940    26    25    20    40
 C    -1.67840   3.13010  -2.41850    27    28    12    93
 C    -0.38610   3.52460  -2.41670    28    27    15    21
 C     4.36140   0.19450   1.37870    29    30    20    39
 C     4.49010  -1.01650   0.76260    30    33    29    31
 C     4.50290  -1.02410  -0.62540    31    19    32    30
 C     3.88560  -2.01580  -1.33360    32    35    31    54
 C     3.84640  -2.05380   1.36950    33    30    34    76
 C     3.38000  -3.12860   0.65730    34    36    33    35
 C     3.38130  -3.13160  -0.73330    35    41    32    34
 C     2.34110  -3.68000   1.36100    36    37    34    77
 C     1.35800  -4.39440   0.74150    37    36    38    42
 C     0.13870  -4.36110   1.35290    38    37    44    49
 C     3.51000   0.38310   2.47000    39    40    75    29
 C     3.11340   1.67830   2.47340    40    39    79    26
 C     2.31300  -3.71110  -1.34540    41    35    42    52
 C     1.35940  -4.40480  -0.64790    42    46    41    37
 C    -2.02200  -3.87360   1.34870    43    48    44    50
 C    -1.02530  -4.49420   0.64130    44    43    38    45
 C    -1.02050  -4.49690  -0.74950    45    46    57    44
 C     0.19080  -4.36930  -1.35450    46    45    42    51
 C    -3.71390  -2.30740   1.34860    47    48    59    84
 C    -3.13570  -3.38000   0.73370    48    43    47    58
 C    -0.11810  -3.53750   2.45040    49    50    83    38
 C    -1.43730  -3.23830   2.44710    50    49    85    43
 C     0.38940  -3.51180  -2.43750    51    52    56    46
 C     1.68110  -3.11380  -2.43880    52    51    53    41
 C     2.06580  -1.89380  -2.96690    53    54    52     4
 C     3.24550  -1.42080  -2.42300    54     2    53    32
 C    -1.86390  -3.00510  -2.42640    55     7    56    57
 C    -0.62020  -2.72450  -2.96700    56    55    51     3
 C    -2.07090  -3.86300  -1.34310    57    45    58    55
 C    -3.15150  -3.38770  -0.65540    58    61    57    48
 C    -4.41230  -1.36200   0.64010    59    65    47    60
 C    -4.41740  -1.36580  -0.75060    60    61    62    59
 C    -3.71150  -2.35550  -1.35360    61    60    58     7
 C    -4.38450  -0.13660  -1.33900    62    60    68     8
 C    -2.35090   3.69120   1.35930    63    94    64    73
 C    -3.38750   3.13940   0.64790    64    66    63    92
 C    -4.36820  -0.18960   1.34860    65    67    59    70
 C    -3.85470   2.05830   1.35190    66    67    64    74
 C    -4.49710   1.02340   0.73890    67    66    65    68
 C    -4.51030   1.03640  -0.64890    68    91    62    67
 C    -2.73830   0.61690   2.98180    69    70    74    87
 C    -3.52130  -0.38690   2.44040    70    84    69    65
 C     0.10230   3.54170   2.44710    71    78    72    96
 C    -0.83160   2.67370   2.99000    72    73    71    86
 C    -2.09250   2.85340   2.44610    73    74    72    63
 C    -3.00650   1.86370   2.44290    74    73    69    66
 C     2.72010  -0.62230   3.00010    75    76    39    81
 C     2.99340  -1.86630   2.45840    76    77    75    33
 C     2.07780  -2.85840   2.45860    77    76    83    36
 C     1.42380   3.24140   2.45360    78    71    79    90
 C     1.89180   2.05640   3.00400    79    40    78    80
 C     0.97600   1.06410   3.52270    80    79    86    81
 C     1.40270  -0.32350   3.52390    81    75    80    82
 C     0.41820  -1.39060   3.52130    82    83    88    81
 C     0.81730  -2.67760   2.99850    83    77    49    82
 C    -3.12380  -1.67700   2.44560    84    70    85    47
 C    -1.91030  -2.05660   2.99120    85    84    50    88
 C    -0.43900   1.38540   3.51650    86    72    80    87
 C    -1.42440   0.31970   3.51440    87    69    88    86
 C    -0.99660  -1.06540   3.51820    88    85    87    82
 C     1.02220   4.51480   0.67560    89    90    96    22
 C     2.01910   3.89710   1.37210    90    25    89    78
 C    -3.89530   2.03950  -1.34320    91    92    68    11
 C    -3.39020   3.15220  -0.74360    92    93    91    64
 C    -2.31780   3.74070  -1.33660    93    92    95    27
 C    -1.36980   4.42120   0.75390    94    96    63    95
 C    -1.37210   4.43380  -0.63280    95    93    21    94
 C    -0.15420   4.39030   1.36570    96    94    89    71
