    96
C96-C1-43                                                                       
 C     1.42990  -4.06890  -0.29040     1     4    62     2
 C     2.61930  -3.40440  -0.56300     2     1    56     3
 C     2.71870  -2.74910  -1.85380     3     6    14     2
 C     0.40020  -4.18240  -1.19080     4     5    12     1
 C     0.48460  -3.54950  -2.35370     5     4     8     6
 C     1.59280  -2.82530  -2.66730     6     5    20     3
 C    -2.72720  -2.12280  -2.63390     7     9    95    27
 C    -0.62820  -3.02420  -2.91310     8     5    26     9
 C    -1.88350  -3.15130  -2.32920     9     7     8    10
 C    -2.01840  -3.78780  -1.07460    10    12     9    11
 C    -3.00110  -3.31320  -0.14390    11    13    94    10
 C    -0.80940  -4.29120  -0.56240    12    65     4    10
 C    -2.61420  -3.34590   1.20590    13    78    64    11
 C     3.53120  -1.61890  -2.04230    14    15     3    17
 C     4.36590  -1.29240  -0.96830    15    16    58    14
 C     4.83370  -0.01590  -0.75000    16    19    34    15
 C     3.08240  -0.54600  -2.91960    17    18    21    14
 C     3.55770   0.72050  -2.58710    18    19    24    17
 C     4.41440   0.98240  -1.55450    19    16    35    18
 C     1.15690  -1.79660  -3.48420    20    21    26     6
 C     1.81840  -0.59770  -3.58770    21    20    17    22
 C     0.99010   0.57250  -3.81810    22    23    21    29
 C     1.53380   1.78740  -3.34720    23    24    25    22
 C     2.77640   1.84330  -2.76350    24    23    18    36
 C     0.67070   2.76860  -2.91800    25    31    23    38
 C    -0.20890  -1.91600  -3.62670    26    28    20     8
 C    -2.32010  -1.00960  -3.38290    27    88    28     7
 C    -1.02760  -0.83660  -3.84920    28    26    27    29
 C    -0.46370   0.45880  -3.92360    29    28    30    22
 C    -1.32690   1.55100  -3.51630    30    31    89    29
 C    -0.68560   2.66590  -3.00380    31    25    84    30
 C     4.61770   1.41880   1.10950    32    33    42    34
 C     4.18290   2.41630   0.29780    33    35    32    51
 C     4.97840   0.19920   0.58720    34    41    16    32
 C     4.11510   2.21300  -1.04050    35    36    33    19
 C     3.10840   2.75080  -1.75140    36    35    37    24
 C     2.15100   3.56750  -1.17310    37    38    36    50
 C     0.97260   3.60660  -1.84860    38    52    37    25
 C     3.90690  -0.87420   2.35520    39    41    59    40
 C     3.50880   0.33650   2.85440    40    42    49    39
 C     4.60850  -0.94910   1.20110    41    39    34    58
 C     3.84660   1.47270   2.22610    42    40    32    43
 C     2.92150   2.47880   2.14000    43    42    51    47
 C    -0.69940   2.95790   2.62730    44    45    46    72
 C    -1.74740   3.44870   1.82910    45    81    55    44
 C     0.63440   3.23950   2.21540    46    47    44    54
 C     1.66900   2.43610   2.77210    47    43    46    48
 C     1.34710   1.23210   3.51260    48    49    73    47
 C     2.30320   0.20900   3.46270    49    40    66    48
 C     2.11760   3.71940   0.25140    50    51    54    37
 C     3.14710   3.09760   0.92430    51    50    43    33
 C    -0.18760   3.96410  -1.26830    52    38    84    53
 C    -0.27270   4.15150   0.10790    53    55    52    54
 C     0.86350   3.89590   0.91460    54    53    50    46
 C    -1.53610   3.97450   0.57470    55    53    45    86
 C     3.31040  -2.89120   0.55470    56    58     2    57
 C     2.64420  -2.86700   1.84670    57    59    61    56
 C     4.24770  -1.90280   0.28270    58    41    56    15
 C     2.94330  -1.77730   2.66330    59    39    57    66
 C     0.40820  -2.80970   2.92760    60    63    68    61
 C     1.36920  -3.41730   2.03230    61    62    57    60
 C     0.83730  -4.11150   0.95230    62    65     1    61
 C    -0.93350  -3.05970   2.66660    63    71    64    60
 C    -1.38450  -3.79390   1.60760    64    65    63    13
 C    -0.50470  -4.28610   0.75740    65    64    12    62
 C     1.97260  -1.13150   3.42810    66    68    49    59
 C    -0.32800  -0.58490   3.83510    67    70    68    73
 C     0.69020  -1.56830   3.56850    68    66    60    67
 C    -2.63530  -0.04470   3.36120    69    70    74    76
 C    -1.66620  -0.97870   3.58110    70    69    71    67
 C    -1.93740  -2.20000   2.99120    71    63    70    78
 C    -1.01060   1.77880   3.41530    72    74    73    44
 C     0.00720   0.84700   3.75930    73    48    72    67
 C    -2.32720   1.29710   3.30680    74    82    69    72
 C    -4.17330   0.93160   2.09980    75    76    79    82
 C    -3.76720  -0.27390   2.56090    76    75    77    69
 C    -3.93530  -1.44470   1.82130    77    78    76    93
 C    -3.01590  -2.40790   2.11710    78    77    13    71
 C    -4.71180   1.02850   0.85930    79    75    96    83
 C    -3.55170   3.06120   0.58100    80    86    83    81
 C    -3.01180   2.94160   1.82470    81    82    80    45
 C    -3.31030   1.87960   2.56750    82    81    74    75
 C    -4.37940   2.11160   0.08080    83    80    91    79
 C    -1.24060   3.47550  -2.03480    84    85    31    52
 C    -2.50090   3.29190  -1.56100    85    84    86    92
 C    -2.63870   3.65250  -0.22120    86    80    85    55
 C    -4.01890  -0.43830  -2.09740    87    90    95    88
 C    -3.11210   0.03990  -3.02090    88    27    87    89
 C    -2.67130   1.36320  -3.05170    89    88    30    92
 C    -4.57340   0.37170  -1.20150    90    87    91    96
 C    -4.24700   1.70650  -1.21870    91    83    90    92
 C    -3.28340   2.24300  -2.09220    92    91    85    89
 C    -4.44360  -1.37920   0.48940    93    96    77    94
 C    -3.91430  -2.28170  -0.49780    94    95    11    93
 C    -3.73910  -1.74410  -1.78730    95    87     7    94
 C    -4.81870  -0.08570   0.07450    96    79    90    93
