    96
C96-C1-153                                                                      
 C    -0.15130   3.91180  -1.67400     1     7    57     2
 C     0.98340   3.40360  -2.27840     2     1     3    10
 C     2.20660   3.46060  -1.53780     3     4    58     2
 C     3.23890   2.54410  -1.77280     4     6     3     5
 C     4.07400   2.14290  -0.72220     5    43    19     4
 C     2.99260   1.56550  -2.71840     6    17     4    11
 C    -1.42100   3.52110  -1.95880     7     1    67     8
 C    -1.73080   2.51670  -2.87440     8     7    15     9
 C    -0.60470   1.86200  -3.49150     9     8    10    13
 C     0.72670   2.34890  -3.21210    10    11     2     9
 C     1.77670   1.45890  -3.38130    11    27    10     6
 C    -2.00260  -0.11360  -3.59800    12    28    14    13
 C    -0.76280   0.46460  -3.85200    13    12    26     9
 C    -3.07510   0.55180  -3.02730    14    15    12    96
 C    -2.96200   1.85990  -2.63700    15    14    16     8
 C    -3.74340   2.16680  -1.51270    16    68    94    15
 C     3.56740   0.31360  -2.64700    17     6    18    21
 C     4.41180  -0.05660  -1.61480    18    20    19    17
 C     4.62810   0.88250  -0.63430    19    18     5    35
 C     4.32730  -1.36950  -1.21880    20    18    23    33
 C     2.68790  -0.56690  -3.25280    21    22    27    17
 C     2.61220  -1.89120  -2.88800    22    21    23    31
 C     3.47750  -2.25230  -1.85060    23    25    20    22
 C     1.94090  -3.78390  -1.02290    24    25    32    51
 C     3.10860  -3.16630  -0.91510    25    24    39    23
 C     0.34260  -0.44440  -3.90290    26    27    13    30
 C     1.59130   0.12600  -3.71310    27    21    26    11
 C    -2.15380  -1.45600  -3.31440    28    89    12    29
 C    -1.08250  -2.33570  -3.22580    29    28    30    92
 C     0.21630  -1.85260  -3.56990    30    29    31    26
 C     1.36230  -2.53250  -3.02910    31    32    22    30
 C     1.10140  -3.53290  -2.07840    32    93    24    31
 C     4.40960  -1.73590   0.12160    33    34    39    20
 C     4.55010  -0.78460   1.10360    34    33    36    35
 C     4.68190   0.52690   0.71100    35    34    42    19
 C     3.82190  -1.00790   2.24840    36    34    37    40
 C     3.02070  -2.12430   2.41970    37    55    38    36
 C     2.85110  -3.10060   1.46090    38    37    39    52
 C     3.60770  -2.85020   0.30760    39    25    33    38
 C     3.24130   0.03900   2.95210    40    45    41    36
 C     3.34700   1.36220   2.58120    41    40    42    49
 C     4.13160   1.56570   1.43630    42    43    35    41
 C     3.83820   2.55820   0.56000    43    44    42     5
 C     2.84090   3.39080   0.82100    44    43    58    50
 C     2.13070  -0.43590   3.57450    45    40    47    55
 C    -0.11030  -0.30440   4.02340    46    60    47    56
 C     1.05960   0.38320   3.89070    47    46    45    48
 C     1.03490   1.75600   3.50550    48    47    49    62
 C     2.23090   2.22090   2.85100    49    50    41    48
 C     2.05430   3.26310   1.95430    50    64    44    49
 C     1.20070  -4.12100   0.08380    51    83    24    52
 C     1.58130  -3.74680   1.37590    52    51    38    53
 C     0.49360  -3.45310   2.27320    53    54    52    86
 C     0.77430  -2.43390   3.23560    54    56    55    53
 C     1.99460  -1.79130   3.25430    55    37    54    45
 C    -0.25370  -1.66870   3.71600    56    88    54    46
 C    -0.16910   4.31250  -0.35150    57    59    65     1
 C     2.08480   3.89340  -0.19560    58    59    44     3
 C     0.91370   4.23640   0.37900    59    57    58    64
 C    -1.32160   0.29310   3.86680    60    46    78    61
 C    -1.48970   1.62580   3.45930    61    60    72    62
 C    -0.28060   2.37570   3.24820    62    63    61    48
 C    -0.36590   3.43990   2.28960    63    64    66    62
 C     0.83630   3.81530   1.68950    64    50    59    63
 C    -1.38160   4.10220   0.20190    65    57    67    66
 C    -1.56900   3.66070   1.54020    66    71    65    63
 C    -2.18690   3.74360  -0.83100    67    68    65     7
 C    -3.29150   3.07420  -0.59820    68    67    16    69
 C    -3.62060   2.69730   0.67420    69    75    68    71
 C    -3.60850   0.81660   2.54680    70    82    74    72
 C    -2.73990   2.91010   1.77340    71    66    72    69
 C    -2.71080   1.89840   2.75630    72    71    70    61
 C    -4.55120  -0.66450   1.12590    73    74    81    77
 C    -4.42810   0.67060   1.45470    74    75    70    73
 C    -4.42090   1.60460   0.50510    75    74    69    94
 C    -4.02930  -2.28400  -0.43850    76    90    77    79
 C    -4.65310  -1.06530  -0.20260    77    76    73    95
 C    -2.20530  -0.71270   3.57450    78    82    60    88
 C    -3.33490  -3.01700   0.51960    79    84    80    76
 C    -3.18050  -2.58120   1.81450    80    79    81    87
 C    -3.84720  -1.38140   2.07480    81    82    73    80
 C    -3.32850  -0.46010   2.93350    82    78    81    70
 C    -0.09010  -4.23990  -0.31730    83    51    85    93
 C    -2.33130  -3.72060  -0.09910    84    79    85    91
 C    -1.15370  -4.07080   0.53790    85    83    84    86
 C    -0.89880  -3.64300   1.87480    86    85    87    53
 C    -1.95330  -2.87540   2.48490    87    88    80    86
 C    -1.54630  -1.90270   3.39680    88    56    78    87
 C    -3.30550  -1.57740  -2.56580    89    90    96    28
 C    -3.39880  -2.53580  -1.62530    90    89    91    76
 C    -2.37760  -3.40210  -1.45850    91    90    92    84
 C    -1.24970  -3.37530  -2.25950    92    93    91    29
 C    -0.14220  -3.88890  -1.67680    93    92    32    83
 C    -4.50600   1.24660  -0.82360    94    75    16    95
 C    -4.60360  -0.07410  -1.21450    95    94    96    77
 C    -3.88630  -0.36460  -2.36990    96    89    14    95
