    96
C96-C1-113                                                                      
 C    -2.86620   3.24940  -0.67970     1    15    55     2
 C    -3.82220   2.25140  -0.51510     2     1     8     3
 C    -4.00320   1.36380  -1.63240     3    56     4     2
 C    -4.37340   0.01780  -1.39210     4     6     5     3
 C    -3.84060  -0.98870  -2.19730     5    43    20     4
 C    -4.62080  -0.38210  -0.10720     6     4     9    18
 C    -3.16490   2.32260   1.88370     7    10    13     8
 C    -4.01750   1.81100   0.81830     8     9     2     7
 C    -4.48520   0.49920   0.96220     9    12     6     8
 C    -2.87250   1.46070   2.94470    10    11     7    94
 C    -3.40640   0.21220   3.02300    11    12    22    10
 C    -4.20260  -0.26740   2.04760    12    11     9    17
 C    -2.15530   3.27870   1.65040    13    15     7    14
 C    -0.90910   3.29390   2.39020    14    16    93    13
 C    -2.09630   3.75360   0.33770    15    65     1    13
 C     0.19580   3.84190   1.75970    16    90    66    14
 C    -4.09740  -1.57150   1.66800    17    18    21    12
 C    -4.31830  -1.67690   0.34550    18    17    19     6
 C    -3.62710  -2.62510  -0.42020    19    20    18    25
 C    -3.45180  -2.23660  -1.72080    20    28    19     5
 C    -3.18280  -2.36830   2.26200    21    17    23    24
 C    -2.52790  -0.60310   3.64960    22    23    11    86
 C    -2.41190  -1.88870   3.26970    23    22    39    21
 C    -2.43870  -3.26660   1.55040    24    21    30    25
 C    -2.61020  -3.44820   0.17890    25    24    26    19
 C    -1.44940  -3.87590  -0.54610    26    27    25    32
 C    -1.39860  -3.47550  -1.92040    27    29    28    26
 C    -2.37590  -2.65680  -2.45430    28    20    27    42
 C    -0.17840  -3.32640  -2.54280    29    35    27    40
 C    -1.21690  -3.39220   2.18710    30    31    24    39
 C    -0.07190  -3.80670   1.55350    31    30    37    32
 C    -0.17810  -4.10970   0.13790    32    34    31    26
 C     2.22600  -3.72190   0.01340    33    36    34    51
 C     1.02980  -4.03250  -0.61040    34    33    35    32
 C     0.99150  -3.63200  -1.93520    35    29    53    34
 C     2.27880  -3.40480   1.34740    36    33    82    37
 C     1.14900  -3.37060   2.15250    37    36    31    89
 C    -0.04770  -1.85930   3.70720    38    39    89    87
 C    -1.20200  -2.48750   3.25430    39    23    38    30
 C     0.09210  -2.34040  -3.49530    40    45    41    29
 C    -0.83140  -1.43390  -3.89760    41    40    42    49
 C    -2.10340  -1.68210  -3.40910    42    43    41    28
 C    -3.00670  -0.69600  -3.23320    43    44    42     5
 C    -2.66340   0.56110  -3.50100    44    43    56    50
 C     1.41110  -2.03970  -3.43660    45    40    53    47
 C     3.07530  -0.47950  -3.04870    46    58    47    54
 C     1.88800  -0.74890  -3.69050    47    46    45    48
 C     0.97040   0.30320  -3.97710    48    47    49    60
 C    -0.40360  -0.09230  -4.14970    49    50    41    48
 C    -1.38180   0.86420  -3.93960    50    62    49    44
 C     3.28250  -3.04780  -0.60980    51    83    52    33
 C     3.15830  -2.59430  -1.90170    52    53    54    51
 C     2.00410  -2.90410  -2.53660    53    52    45    35
 C     3.72770  -1.38180  -2.19720    54    85    52    46
 C    -2.09250   3.38930  -1.82060    55    57    63     1
 C    -3.16130   1.57350  -2.74280    56    57    44     3
 C    -2.21410   2.53720  -2.81810    57    55    56    62
 C     3.39350   0.78910  -2.63300    58    46    76    59
 C     2.52740   1.88780  -2.80180    59    58    70    60
 C     1.29160   1.66550  -3.51130    60    61    59    48
 C     0.20880   2.57380  -3.24730    61    62    64    60
 C    -1.09030   2.12750  -3.51360    62    50    57    61
 C    -0.87860   3.92110  -1.55940    63    55    65    64
 C     0.32400   3.58010  -2.23200    64    69    63    61
 C    -0.93950   4.21660  -0.22880    65    66    63    15
 C     0.17110   4.28300   0.46060    66    65    67    16
 C     1.37320   4.10920  -0.14040    67    66    73    69
 C     3.53600   2.66610  -0.73110    68    80    72    70
 C     1.51800   3.71530  -1.49870    69    70    64    67
 C     2.63300   2.91070  -1.79960    70    69    68    59
 C     3.76780   2.11310   1.44790    71    72    79    75
 C     3.28520   3.03820   0.56690    72    73    71    68
 C     2.19640   3.71370   0.86100    73    72    67    90
 C     3.17200   0.48310   2.98150    74    75    95    77
 C     3.05170   1.80050   2.61350    75    74    71    91
 C     4.27300   0.63290  -1.57930    76    80    85    58
 C     3.92770  -0.43160   2.25570    77    81    74    78
 C     4.58870  -0.13090   1.06650    78    79    77    84
 C     4.46920   1.19200   0.69580    79    80    78    71
 C     4.31620   1.55960  -0.62160    80    76    68    79
 C     3.33150  -1.64070   2.46090    81    82    77    88
 C     3.36440  -2.58100   1.50880    82    81    83    36
 C     3.99380  -2.33430   0.32540    83    82    51    84
 C     4.61130  -1.11650   0.05010    84    83    85    78
 C     4.45300  -0.68300  -1.26710    85    76    54    84
 C    -1.42520   0.10510   4.00540    86    22    87    94
 C    -0.15890  -0.45990   4.09950    87    86    96    38
 C     2.24060  -1.51280   3.27130    88    81    95    89
 C     1.14900  -2.37180   3.20300    89    88    38    37
 C     1.48350   3.47270   2.02130    90    16    73    91
 C     1.83450   2.46690   2.91670    91    90    75    92
 C     0.74750   1.81700   3.59380    92    91    96    93
 C    -0.60590   2.28540   3.35410    93    94    14    92
 C    -1.64170   1.41930   3.60780    94    93    86    10
 C     2.13960  -0.17260   3.61930    95    74    96    88
 C     0.93610   0.42540   3.96020    96    95    87    92
