    96
C96-C1-62                                                                       
 C    -2.72410   3.08430   1.74430     1    10    53     2
 C    -1.47190   3.13400   2.40320     2     3     1    13
 C    -0.41970   3.77880   1.74300     3     2     4    54
 C     0.93250   3.46560   2.02070     4     5     3     7
 C     1.85880   3.73130   0.99390     5    17    39     4
 C     0.18010   1.64170   3.51850     6    13    14     7
 C     1.27920   2.41020   2.93360     7     4     8     6
 C     2.58640   1.81930   2.79050     8     9    16     7
 C     2.72900   0.51030   3.24150     9    18    15     8
 C    -3.66490   2.14210   1.95020    10    11     1    63
 C    -3.39440   1.14340   2.80570    11    10    93    12
 C    -2.17060   1.07360   3.41830    12    11    25    13
 C    -1.16600   2.04640   3.28120    13    12     6     2
 C     0.39540   0.23480   3.84120    14    15    26     6
 C     1.66800  -0.25090   3.69090    15    14     9    28
 C     3.50390   2.18090   1.74580    16    17    20     8
 C     3.06180   3.10660   0.84520    17     5    16    31
 C     3.67510  -0.35270   2.74080    18    19    21     9
 C     4.48300  -0.00850   1.71600    19    20    18    22
 C     4.39190   1.23810   1.20900    20    19    29    16
 C     3.17270  -1.60860   2.82300    21    18    24    28
 C     4.73590  -0.89590   0.70360    22    23    35    19
 C     4.19400  -2.12490   0.77040    23    22    24    47
 C     3.45640  -2.50650   1.84660    24    90    21    23
 C    -1.91760  -0.27830   3.60270    25    26    12    96
 C    -0.64870  -0.75700   3.77680    26    25    14    86
 C     0.94260  -2.50360   3.12570    27    28    86    89
 C     1.93890  -1.57930   3.40330    28    21    15    27
 C     4.64830   1.12140  -0.16000    29    30    35    20
 C     4.09710   2.00680  -1.03530    30    29    31    32
 C     3.35940   3.03700  -0.51970    31    30    38    17
 C     3.64310   1.50940  -2.23360    32    30    36    34
 C     4.22790  -0.78140  -1.64340    33    34    35    48
 C     3.69540   0.15110  -2.51070    34    51    33    32
 C     4.77710  -0.22980  -0.47190    35    22    29    33
 C     2.54340   2.03690  -2.88440    36    41    37    32
 C     1.82500   3.10940  -2.41570    37    36    38    45
 C     2.30830   3.59660  -1.19550    38    39    31    37
 C     1.46700   4.09880  -0.27230    39    40    38     5
 C     0.19790   4.26210  -0.55290    40    39    54    46
 C     1.93250   1.04170  -3.57590    41    36    43    51
 C     0.04370  -0.15360  -4.05080    42    56    43    52
 C     0.57800   1.08640  -3.87260    43    42    41    44
 C    -0.26420   2.15020  -3.42720    44    43    45    58
 C     0.42660   3.17370  -2.69250    45    46    37    44
 C    -0.34020   3.83670  -1.75700    46    60    45    40
 C     3.64060  -2.70950  -0.34710    47    79    23    48
 C     3.60040  -2.07550  -1.59850    48    47    33    49
 C     2.48020  -2.39850  -2.45150    49    50    48    82
 C     2.05230  -1.37850  -3.35850    50    52    51    49
 C     2.64950  -0.13770  -3.33680    51    34    50    41
 C     0.75330  -1.34290  -3.79630    52    84    50    42
 C    -2.89560   3.43270   0.42320    53    55    61     1
 C    -0.72510   4.19810   0.41910    54    40    55     3
 C    -1.88750   3.93480  -0.22730    55    53    54    60
 C    -1.28710  -0.38720  -3.88090    56    42    74    57
 C    -2.22460   0.57000  -3.45020    57    56    68    58
 C    -1.69950   1.88350  -3.19370    58    57    59    44
 C    -2.43220   2.65770  -2.22700    59    60    62    58
 C    -1.66310   3.60980  -1.54760    60    46    55    59
 C    -3.79450   2.62000  -0.20380    61    63    53    62
 C    -3.58510   2.14990  -1.53410    62    67    61    59
 C    -4.35460   1.88140   0.79050    63    64    61    10
 C    -4.80230   0.65210   0.53520    64    63    65    92
 C    -4.69380   0.13840  -0.72240    65    64    71    67
 C    -3.41640  -1.34150  -2.55100    66    78    70    68
 C    -4.06570   0.84030  -1.80230    67    68    62    65
 C    -3.38050   0.06160  -2.76400    68    67    66    57
 C    -3.20950  -3.02960  -1.08360    69    70    77    73
 C    -3.96070  -1.93930  -1.44610    70    71    66    69
 C    -4.57590  -1.21840  -0.52950    71    70    65    91
 C    -1.74890  -3.89810   0.46790    72    73    87    75
 C    -2.97760  -3.33200   0.25610    73    72    69    94
 C    -1.38470  -1.72500  -3.60480    74    78    56    84
 C    -0.81360  -4.15350  -0.53320    75    80    76    72
 C    -0.99910  -3.76490  -1.83750    76    75    77    83
 C    -2.24920  -3.20300  -2.05670    77    78    69    76
 C    -2.42170  -2.18140  -2.93760    78    74    66    77
 C     2.63740  -3.54520   0.08630    79    81    47    90
 C     0.42480  -4.20690   0.00310    80    75    81    88
 C     1.58070  -3.89610  -0.70680    81    79    80    82
 C     1.46590  -3.36430  -2.02510    82    81    83    49
 C     0.13810  -3.31970  -2.56910    83    84    76    82
 C    -0.14540  -2.29460  -3.46750    84    52    74    83
 C    -1.46720  -2.80890   2.62490    85    87    95    86
 C    -0.41080  -2.12330   3.34550    86    27    85    26
 C    -1.03700  -3.69260   1.63040    87    88    72    85
 C     0.27790  -3.95600   1.37040    88    89    87    80
 C     1.28810  -3.45700   2.12080    89    88    90    27
 C     2.50940  -3.38010   1.47330    90    24    89    79
 C    -4.42690  -1.52630   0.81260    91    92    71    94
 C    -4.59740  -0.34930   1.45950    92    93    91    64
 C    -3.86480  -0.10390   2.57060    93    92    11    96
 C    -3.54370  -2.53040   1.26370    94    73    91    95
 C    -2.75600  -2.24760   2.44220    95    96    85    94
 C    -2.95630  -1.00550   3.03110    96    93    95    25
