    96
C96-C1-71                                                                       
 C    -4.56620   1.64060   0.01730     1     3    13     2
 C    -4.19470   1.82050   1.33400     2     4    17     1
 C    -4.85130   0.39660  -0.43100     3     1    25    60
 C    -4.12870   0.76760   2.15370     4     2    61     5
 C    -3.10220   0.68110   3.06180     5     4     9     6
 C    -2.07490   1.65120   3.21670     6     5    16    15
 C    -0.67510  -0.19110   4.00610     7     8    11    15
 C     0.59860  -0.74190   3.98120     8    38    96     7
 C    -2.89400  -0.66570   3.24890     9    11     5    67
 C    -1.37660  -2.38920   3.23440    10    93    65    11
 C    -1.70920  -1.11920   3.70060    11     9    10     7
 C    -1.99340   3.80070  -0.22580    12    14    18    21
 C    -3.83460   2.50540  -0.74270    13     1    14    23
 C    -3.11600   3.24980   0.14800    14    12    13    17
 C    -0.80570   1.22390   3.71590    15     6     7    19
 C    -2.16090   2.77610   2.34180    16    17    20     6
 C    -3.24610   2.78820   1.42900    17     2    14    16
 C    -0.96920   3.97730   0.65770    18    35    12    20
 C     0.40240   1.97840   3.41400    19    39    15    40
 C    -0.96180   3.44190   1.96820    20    18    16    40
 C    -1.50460   3.62280  -1.49470    21    27    12    22
 C    -2.09090   2.77220  -2.42340    22    21    31    23
 C    -3.34340   2.18580  -2.02730    23    24    13    22
 C    -3.68060   0.89420  -2.48120    24    26    25    23
 C    -4.40270   0.01710  -1.65840    25     3    47    24
 C    -2.77610   0.29160  -3.31130    26    24    45    32
 C    -0.17730   3.85690  -1.43230    27    21    29    35
 C     2.00460   3.28040  -1.83170    28    29    49    33
 C     0.72690   3.29300  -2.30870    29    28    27    30
 C     0.27780   2.32350  -3.24480    30    29    31    51
 C    -1.15690   2.10710  -3.28650    31    32    22    30
 C    -1.57640   0.86900  -3.72070    32    53    31    26
 C     2.34430   3.68090  -0.53310    33    36    34    28
 C     1.37560   3.97830   0.41520    34    35    33    43
 C     0.14620   4.13860  -0.09480    35    34    18    27
 C     3.49490   3.07050  -0.21800    36    33    37    78
 C     3.70190   2.67680   1.05630    37    36    82    42
 C     1.73140  -0.03410   3.76460    38     8    39    85
 C     1.67950   1.32510   3.51150    39    41    38    19
 C     0.31980   3.11360   2.50190    40    20    43    19
 C     2.79600   1.76220   2.83410    41    42    39    90
 C     2.70970   2.84080   1.99280    42    41    37    43
 C     1.50450   3.48790   1.75420    43    42    34    40
 C    -1.36010  -1.28700  -3.78780    44    48    45    53
 C    -2.59560  -1.08000  -3.30070    45    44    26    46
 C    -3.19020  -1.94290  -2.37040    46    47    45    57
 C    -4.11220  -1.34730  -1.57030    47    46    59    25
 C    -0.69170  -2.36800  -3.44030    48    44    54    56
 C     2.92980   2.35330  -2.24560    49    78    28    50
 C     2.57790   1.28790  -3.09200    50    49    51    70
 C     1.23630   1.26750  -3.61680    51    52    50    30
 C     0.70730  -0.00230  -3.99390    52    53    51    55
 C    -0.68330  -0.11950  -4.04340    53    32    44    52
 C     0.65780  -2.34520  -3.44570    54    48    73    55
 C     1.44190  -1.20360  -3.73410    55    71    54    52
 C    -1.19010  -3.22580  -2.47810    56    69    48    57
 C    -2.41690  -3.02660  -1.86230    57    56    46    63
 C    -3.48980  -2.74780   0.32130    58    59    66    63
 C    -4.30130  -1.75830  -0.26840    59    60    47    58
 C    -4.80090  -0.67280   0.41550    60    61     3    59
 C    -4.45750  -0.48290   1.71000    61    67    60     4
 C    -1.30510  -3.98020   0.12750    62    64    68    63
 C    -2.50740  -3.43400  -0.48600    63    57    58    62
 C    -1.14830  -3.75630   1.48800    64    65    92    62
 C    -2.07250  -3.03770   2.22330    65    66    64    10
 C    -3.23190  -2.54300   1.70920    66    65    67    58
 C    -3.68940  -1.38360   2.34320    67    61    66     9
 C    -0.06400  -4.16160  -0.55440    68    69    62    76
 C    -0.09220  -3.78060  -1.89120    69    56    73    68
 C     3.32230   0.07150  -2.86090    70    71    80    50
 C     2.71880  -1.16950  -3.14380    71    55    70    74
 C     2.18060  -3.24160  -1.95830    72    73    74    75
 C     1.01220  -3.30290  -2.54720    73    72    54    69
 C     3.05350  -2.24840  -2.28140    74    81    72    71
 C     2.32010  -3.63710  -0.65450    75    72    86    76
 C     1.22720  -4.06650   0.10000    76    75    91    68
 C     4.54790   1.15420  -1.02670    77    78    80    84
 C     3.88540   2.28930  -1.26470    78    77    36    49
 C     4.49490  -1.00950  -0.96440    79    81    83    80
 C     4.27610   0.07150  -1.80140    80    77    79    70
 C     3.85860  -2.14210  -1.19360    81    79    74    86
 C     4.37120   1.51640   1.29200    82    90    84    37
 C     4.73490  -0.59960   0.32320    83    84    79    88
 C     4.82090   0.75520   0.26130    84    82    83    77
 C     2.71180  -0.89960   3.24170    85    89    95    38
 C     3.39430  -2.93010  -0.15960    86    75    81    87
 C     3.50370  -2.53660   1.17310    87    86    94    88
 C     4.20290  -1.30130   1.43000    88    83    89    87
 C     3.76150  -0.46110   2.49230    89    85    90    88
 C     3.82730   0.92130   2.38090    90    82    89    41
 C     1.32190  -3.74870   1.46780    91    92    76    94
 C     0.08930  -3.63500   2.09940    92    93    64    91
 C    -0.10330  -2.80220   3.15880    93    96    10    92
 C     2.43390  -2.97450   1.99190    94    95    87    91
 C     2.11900  -2.11860   3.05360    95    96    85    94
 C     0.87950  -2.02730   3.58050    96    93    95     8
