    96
C96-C1-90                                                                       
 C    -3.43310  -2.65750  -1.13320     1    61     2     4
 C    -4.34360  -1.70900  -0.62560     2     3    41     1
 C    -4.62240  -0.55120  -1.27520     3     6     2    20
 C    -2.73410  -2.34440  -2.36090     4     5     8     1
 C    -3.04310  -1.11870  -2.93980     5     6    12     4
 C    -3.97750  -0.26170  -2.42220     6     3    21     5
 C    -0.90910  -3.70360  -1.66820     7    16     8    60
 C    -1.41960  -2.83260  -2.61970     8     7     4    10
 C     0.97700  -2.35710  -3.17160     9    13    14    10
 C    -0.43270  -2.09410  -3.38380    10    11     9     8
 C    -0.81290  -0.77860  -3.85250    11    12    27    10
 C    -2.10170  -0.35230  -3.60690    12    11     5    22
 C     1.88470  -1.35020  -3.48120    13    26     9    96
 C     1.43900  -3.28020  -2.18570    14    16     9    15
 C     2.71610  -3.10640  -1.53840    15    95    17    14
 C     0.43450  -3.90360  -1.46300    16    67     7    14
 C     2.76350  -3.48250  -0.17620    17    66    92    15
 C    -4.42720   1.69680  -0.61960    18    32    20    19
 C    -3.80780   1.98740  -1.79850    19    21    23    18
 C    -4.84310   0.43830  -0.34560    20    18    40     3
 C    -3.58420   1.00520  -2.69610    21    19    22     6
 C    -2.43780   0.99090  -3.41330    22    21    25    12
 C    -2.86430   2.95030  -1.60490    23    19    33    24
 C    -1.69160   3.04220  -2.34330    24    23    35    25
 C    -1.48280   1.99980  -3.33710    25    22    28    24
 C     1.46820  -0.09900  -3.88770    26    88    13    27
 C     0.13660   0.25880  -4.03120    27    26    11    28
 C    -0.19930   1.63720  -3.73350    28    29    25    27
 C     0.83100   2.43680  -3.26230    29    89    28    34
 C    -2.66950   2.53790   2.30450    30    31    46    38
 C    -3.72340   1.98190   1.64430    31    30    32    39
 C    -3.86610   2.46510   0.34300    32    18    31    33
 C    -2.91450   3.29250  -0.26840    33    37    23    32
 C     0.65060   3.38490  -2.26250    34    54    35    29
 C    -0.57910   3.66730  -1.70880    35    34    24    36
 C    -0.59150   4.04400  -0.30730    36    37    35    56
 C    -1.81220   3.79070   0.38570    37    33    38    36
 C    -1.76580   3.44520   1.72170    38    58    37    30
 C    -4.09400   0.64450   1.95810    39    40    31    42
 C    -4.68110  -0.08510   0.90570    40    20    41    39
 C    -4.45260  -1.42180   0.72460    41    44    40     2
 C    -3.28100  -0.08330   2.90530    42    43    47    39
 C    -3.13170  -1.45340   2.67530    43    44    69    42
 C    -3.70290  -2.08560   1.59830    44    41    62    43
 C    -0.76000   2.43650   3.35310    45    48    46    58
 C    -1.97970   1.85460   3.27510    46    45    30    47
 C    -2.19360   0.50410   3.58510    47    46    42    50
 C     0.28570   1.75800   3.80050    48    45    51    49
 C     0.17400   0.43220   4.10130    49    48    70    50
 C    -1.02460  -0.25770   3.97650    50    49    68    47
 C     1.52970   2.07700   3.39520    51    48    82    53
 C     2.89890   2.85940   1.71520    52    53    59    80
 C     1.75960   3.06690   2.43500    53    52    51    57
 C     1.84910   3.49020  -1.59120    54    34    55    84
 C     1.88800   3.80730  -0.24570    55    54    59    56
 C     0.66430   4.05460   0.43720    56    55    57    36
 C     0.64240   3.70790   1.83530    57    58    53    56
 C    -0.58850   3.39780   2.38690    58    38    45    57
 C     2.98860   3.24750   0.40230    59    52    86    55
 C    -1.55700  -3.95340  -0.46090    60    61    65     7
 C    -2.77070  -3.42090  -0.15670    61    60    62     1
 C    -2.91270  -3.10480   1.20070    62    44    63    61
 C    -1.88210  -3.21320   2.11430    63    64    62    69
 C    -0.68330  -3.77670   1.81430    64    63    65    73
 C    -0.58620  -4.20470   0.48650    65    67    60    64
 C     1.71030  -3.98690   0.49810    66    67    17    74
 C     0.59150  -4.25480  -0.14810    67    66    65    16
 C    -0.87250  -1.63060   3.64970    68    69    50    72
 C    -1.98730  -2.16910   3.01440    69    63    68    43
 C     1.42830  -0.10390   3.90840    70    49    71    82
 C     1.62860  -1.42660   3.54440    71    70    76    72
 C     0.42910  -2.23110   3.40340    72    73    71    68
 C     0.48500  -3.33380   2.48360    73    74    64    72
 C     1.68100  -3.52260   1.79940    74    77    66    73
 C     3.73780  -0.60580   2.42720    75    81    78    76
 C     2.83920  -1.66950   2.80830    76    77    71    75
 C     2.80070  -2.75860   1.94640    77    74    92    76
 C     4.44900  -0.74890   1.21380    78    93    83    75
 C     4.36970   1.54630   0.73450    79    83    80    86
 C     3.73210   1.76200   1.91510    80    79    52    81
 C     3.41120   0.71590   2.78650    81    82    80    75
 C     2.28510   0.92390   3.52210    82    81    51    70
 C     4.74580   0.30330   0.37920    83    79    78    90
 C     2.78850   2.66760  -2.19930    84    89    85    54
 C     3.85510   2.07240  -1.54990    85    86    84    91
 C     3.92800   2.43120  -0.21620    86    79    85    59
 C     3.47340   0.14090  -2.91060    87    88    96    91
 C     2.45210   0.78000  -3.53490    88    89    87    26
 C     2.12230   2.03130  -3.20030    89    88    29    84
 C     4.69320  -0.09880  -0.93840    90    83    91    94
 C     4.23890   0.75910  -1.92100    91    90    87    85
 C     3.50200  -2.80690   0.75540    92    93    17    77
 C     4.30170  -1.81860   0.38560    93    92    78    94
 C     4.38810  -1.44950  -0.93380    94    93    90    95
 C     3.57560  -2.05510  -1.90310    95    96    94    15
 C     3.13850  -1.20780  -2.88970    96    95    87    13
