    96
C96-C1-58                                                                       
 C     4.26290   0.53190   1.86970     1     2    61     7
 C     3.45990   0.20360   2.93970     2     4     3     1
 C     3.04680  -1.10510   3.04420     3    60     2    10
 C     2.56130   1.14030   3.35050     4     2     5     8
 C     2.42950   2.36150   2.71730     5    24     6     4
 C     3.16080   2.70650   1.60270     6     5     7    21
 C     4.11640   1.75340   1.22810     7    66     1     6
 C     1.33170   0.78810   3.87530     8    14     4     9
 C     0.87060  -0.51840   3.96430     9    10     8    11
 C     1.78910  -1.45080   3.51740    10    27     9     3
 C    -0.51790  -0.78970   3.88390    11     9    12    17
 C    -0.89380  -2.07150   3.32180    12    13    26    11
 C    -2.18260  -2.17370   2.85270    13    12    19    28
 C     0.47880   1.82110   3.65630    14     8    16    24
 C    -1.53580   2.59310   2.89850    15    40    16    25
 C    -0.87640   1.63510   3.64380    16    14    15    17
 C    -1.44970   0.33410   3.79080    17    18    16    11
 C    -2.76420   0.14830   3.26540    18    19    17    41
 C    -3.10860  -1.14120   2.87110    19    39    13    18
 C     2.92970   3.24600  -0.69420    20    91    65    21
 C     2.49950   3.49720   0.60990    21    20     6    22
 C     1.14350   3.95430   0.77590    22    23    21    93
 C     0.50470   3.60390   2.00650    23    25    24    22
 C     1.15470   2.78770   2.90580    24     5    23    14
 C    -0.86400   3.51390   2.08220    25    96    23    15
 C     0.07200  -2.97000   2.74220    26    27    12    30
 C     1.40310  -2.61810   2.90220    27    10    44    26
 C    -2.52560  -3.03160   1.81350    28    33    13    29
 C    -1.58550  -3.76980   1.10180    29    28    30    36
 C    -0.24530  -3.79140   1.58870    30    29    31    26
 C     0.81780  -4.08150   0.66200    31    32    43    30
 C     0.45970  -4.14600  -0.69030    32    37    45    31
 C    -3.67040  -2.52320   1.25730    33    39    34    28
 C    -3.87550  -2.63340  -0.08150    34    35    33    84
 C    -2.95840  -3.24950  -0.84530    35    34    36    52
 C    -1.85860  -3.88820  -0.29720    36    37    35    29
 C    -0.80720  -3.99320  -1.14270    37    36    32    54
 C    -4.65840  -0.39630   1.23990    38    39    42    83
 C    -4.04820  -1.39680   1.90870    39    38    33    19
 C    -2.76900   2.38080   2.37160    40    15    41    87
 C    -3.45450   1.19900   2.56630    41    40    42    18
 C    -4.36390   0.89060   1.54460    42    38    90    41
 C     2.14850  -3.67340   0.90120    43    44    47    31
 C     2.42480  -2.97530   2.04700    44    43    27    60
 C     1.28460  -3.71790  -1.69240    45    46    32    48
 C     2.51270  -3.30760  -1.44520    46    45    47    49
 C     2.98700  -3.32420  -0.17260    47    46    58    43
 C     0.54850  -3.14620  -2.69270    48    54    45    51
 C     3.08540  -2.30610  -2.17140    49    46    62    50
 C     2.36500  -1.63330  -3.17310    50    49    68    51
 C     1.00820  -2.06860  -3.44380    51    48    56    50
 C    -2.90570  -2.55350  -2.06030    52    76    53    35
 C    -1.77000  -2.52700  -2.83120    53    52    54    55
 C    -0.76160  -3.35060  -2.38740    54    48    53    37
 C    -1.42980  -1.36230  -3.57200    55    53    56    78
 C    -0.02130  -1.17360  -3.87960    56    57    51    55
 C     0.42720   0.11550  -4.07180    57    56    81    67
 C     3.98120  -2.37350  -0.11530    58    59    47    62
 C     4.25800  -1.72200   1.05830    59    58    61    60
 C     3.44920  -2.04900   2.13030    60     3    59    44
 C     4.65450  -0.40980   0.93230    61    59    64     1
 C     4.04050  -1.73240  -1.36090    62    63    49    58
 C     4.39670  -0.40930  -1.49950    63    62    64    69
 C     4.73980   0.22550  -0.29430    64    66    61    63
 C     3.86600   2.27270  -1.02130    65    66    70    20
 C     4.45190   1.54520  -0.07370    66    65     7    64
 C     1.72640   0.52730  -3.82630    67    72    57    68
 C     2.74970  -0.28330  -3.34250    68    67    50    69
 C     3.75380   0.33900  -2.51410    69    70    63    68
 C     3.55780   1.70610  -2.22770    70    73    65    69
 C     0.35600   2.26850  -3.51770    71    72    81    75
 C     1.63780   1.85570  -3.50810    72    73    71    67
 C     2.51290   2.42900  -2.68880    73    72    70    91
 C    -1.43300   3.17770  -2.40940    74    75    94    79
 C    -0.10010   3.26450  -2.66250    75    74    71    92
 C    -3.77940  -1.49990  -1.97650    76    52    84    77
 C    -3.51820  -0.28590  -2.61590    77    76    86    78
 C    -2.33020  -0.21330  -3.43940    78    80    77    55
 C    -2.24920   2.15280  -2.89820    79    85    80    74
 C    -1.74670   1.06900  -3.60850    80    81    79    78
 C    -0.42020   1.19300  -3.92200    81    80    57    71
 C    -4.64680   0.72880  -0.67370    82    83    90    86
 C    -4.84160  -0.49460  -0.11850    83    84    82    38
 C    -4.43150  -1.59450  -0.76960    84    83    34    76
 C    -3.32380   2.05330  -2.07120    85    79    86    88
 C    -4.01760   0.87300  -1.92700    86    85    82    77
 C    -2.88210   3.14980   1.22430    87    89    96    40
 C    -3.16630   2.98380  -1.05110    88    89    94    85
 C    -3.68600   2.74950   0.19190    89    90    88    87
 C    -4.43670   1.62970   0.36690    90    89    42    82
 C     2.09160   3.36990  -1.76820    91    20    73    92
 C     0.77830   3.80220  -1.67740    92    91    75    93
 C     0.27220   4.15640  -0.38190    93    95    92    22
 C    -1.96270   3.63890  -1.24410    94    74    88    95
 C    -1.14210   4.09180  -0.20870    95    96    94    93
 C    -1.67780   3.80380   1.03300    96    25    95    87
