    96
C96-C1-79                                                                       
 C     4.45850   1.11520   1.05470     1     2     9    21
 C     4.67750  -0.20270   0.89940     2     1     3    32
 C     4.14450  -1.10030   1.79180     3    65     2     6
 C     2.13570  -2.75780   2.50480     4    14    64     5
 C     2.23020  -1.58630   3.24010     5     4    17     6
 C     3.32180  -0.70920   2.87410     6     8     3     5
 C     2.00850   1.11350   3.59650     7     8    29    18
 C     3.16860   0.67740   3.03280     8     7     9     6
 C     3.72980   1.56530   2.10800     9     1    28     8
 C    -3.52270  -2.71900   0.99800    10    91    66    11
 C    -2.66430  -2.64980   2.13210    11    12    10    94
 C    -1.45380  -3.36010   2.04980    12    11    68    13
 C    -0.30720  -2.95360   2.79020    13    14    12    16
 C     0.93500  -3.37800   2.28870    14     4    62    13
 C    -1.55180  -0.98510   3.60730    15    94    95    16
 C    -0.30540  -1.75170   3.56870    16    13    15    17
 C     0.99010  -1.10070   3.77330    17    18     5    16
 C     0.96620   0.26820   3.97640    18    96    17     7
 C     3.42540   2.05110  -2.16830    19    33    20    27
 C     4.29480   1.41440  -1.31100    20    19    21    31
 C     4.25880   1.92860  -0.02850    21     1    20    22
 C     3.38060   2.93390   0.37400    22    28    21    26
 C    -0.35050   3.75100   1.82610    23    39    90    24
 C     0.96990   3.83100   1.41450    24    23    30    25
 C     1.19240   3.99340   0.00610    25    26    24    41
 C     2.45800   3.53380  -0.48770    26    27    22    25
 C     2.55020   3.06650  -1.78540    27    43    26    19
 C     3.09240   2.72960   1.69940    28    30    22     9
 C     1.43860   2.33070   3.26270    29    86     7    30
 C     1.91600   3.15110   2.23720    30    28    29    24
 C     4.50220   0.02200  -1.49410    31    32    35    20
 C     4.70090  -0.75700  -0.36570    32     2    47    31
 C     2.78280   1.37740  -3.16620    33    34    36    19
 C     2.93090   0.05080  -3.30920    34    33    35    52
 C     3.77630  -0.62930  -2.49160    35    34    45    31
 C     1.59470   1.94060  -3.43860    36    33    37    43
 C     0.52740   1.19310  -3.90990    37    38    36    51
 C    -0.66960   1.75860  -3.65110    38    37    54    44
 C    -1.44900   3.81800   1.00630    39    23    40    80
 C    -1.33210   3.93240  -0.36820    40    39    84    41
 C     0.02430   4.00990  -0.88190    41    42    40    25
 C     0.21980   3.49750  -2.19830    42    43    44    41
 C     1.44730   3.03150  -2.58970    43    27    42    36
 C    -0.83690   2.89540  -2.84480    44    85    42    38
 C     3.24730  -1.90480  -2.36910    45    46    35    53
 C     3.44750  -2.66800  -1.24450    46    45    49    47
 C     4.21470  -2.04460  -0.24570    47    65    32    46
 C     1.22710  -3.64210  -1.67970    48    50    58    49
 C     2.42380  -3.55400  -0.88400    49    46    63    48
 C     0.08950  -4.05870  -1.02240    50    60    48    61
 C     0.61230  -0.22610  -3.99900    51    52    37    56
 C     1.86390  -0.73640  -3.67800    52    53    34    51
 C     2.05270  -1.96170  -3.09720    53    52    58    45
 C    -1.80380   1.01600  -3.60090    54    38    77    55
 C    -1.82740  -0.39820  -3.65990    55    54    71    56
 C    -0.55190  -1.05180  -3.79580    56    55    51    57
 C    -0.36430  -2.36440  -3.18900    57    59    56    58
 C     0.98030  -2.79030  -2.80290    58    53    48    57
 C    -1.49350  -2.91640  -2.49290    59    60    72    57
 C    -1.17910  -3.75750  -1.41550    60    50    67    59
 C     0.03100  -4.24840   0.34370    61    62    68    50
 C     1.08830  -4.02130   1.07590    62    61    63    14
 C     2.27560  -3.75060   0.50670    63    62    64    49
 C     2.97440  -3.06250   1.44590    64    65    63     4
 C     3.94150  -2.24150   1.08650    65    64     3    47
 C    -3.10990  -3.25140  -0.20710    66    67    69    10
 C    -1.96350  -3.85200  -0.28590    67    66    68    60
 C    -1.19770  -4.00780   0.81580    68    61    67    12
 C    -3.57400  -2.53130  -1.27270    69    75    66    72
 C    -3.90770  -0.14890  -2.40220    70    74    79    71
 C    -2.93820  -1.00000  -3.00890    71    72    55    70
 C    -2.76550  -2.27050  -2.41730    72    71    69    59
 C    -4.81820   0.65470  -0.51680    73    76    78    74
 C    -4.64220  -0.46680  -1.29630    74    75    70    73
 C    -4.45780  -1.65740  -0.71720    75    74    69    91
 C    -4.75420   0.53540   0.83230    76    81    73    92
 C    -2.70890   1.76710  -2.90270    77    79    54    85
 C    -4.21890   1.71180  -1.14200    78    73    79    83
 C    -3.74330   1.21010  -2.32120    79    77    78    70
 C    -2.50320   3.14830   1.62410    80    82    89    39
 C    -4.11870   1.49070   1.55080    81    76    87    82
 C    -3.56190   2.62600   0.94410    82    80    81    83
 C    -3.55970   2.75810  -0.46200    83    78    82    84
 C    -2.43260   3.37820  -1.10290    84    85    40    83
 C    -2.09380   2.86470  -2.35090    85    44    77    84
 C     0.13520   2.24620   3.55610    86    90    29    96
 C    -3.51870   0.83770   2.63610    87    88    93    81
 C    -2.43030   1.33260   3.26990    88    87    89    95
 C    -2.00550   2.57210   2.77840    89    90    80    88
 C    -0.74450   2.98880   2.90120    90    86    89    23
 C    -4.41450  -1.76380   0.65450    91    92    10    75
 C    -4.52650  -0.67350   1.42490    92    91    76    93
 C    -3.70690  -0.52000   2.51720    93    92    87    94
 C    -2.73050  -1.46310   2.92480    94    93    11    15
 C    -1.46080   0.44110   3.81530    95    96    88    15
 C    -0.19770   0.98050   3.98310    96    18    86    95
