    96
C96-Cs-147                                                                      
 C     0.40790   3.96180  -1.56930     1     3     6     8
 C    -1.82510   3.88420  -0.97140     2     3    57    10
 C    -0.54650   4.23330  -0.70520     3     1     2     5
 C     0.97130   3.91960   1.14770     4     5    64     7
 C    -0.28660   4.20340   0.64310     5    62     3     4
 C     1.68310   3.78020  -1.14660     6     1    21     7
 C     2.06030   3.76960   0.20650     7     6    25     4
 C     0.12570   3.22360  -2.68690     8    14     1     9
 C    -1.13700   2.71710  -2.97010     9     8    18    10
 C    -2.20350   3.12420  -2.10190    10    11     2     9
 C    -3.33330   2.31320  -1.91710    11    13    12    10
 C    -3.98690   2.30200  -0.67670    12    56    29    11
 C    -3.35650   1.10730  -2.59250    13    27    11    19
 C     1.29090   2.60870  -3.01290    14     8    16    21
 C     2.45350   0.68040  -3.40540    15    40    16    22
 C     1.29620   1.38330  -3.65040    16    15    14    17
 C     0.05960   0.72200  -3.92280    17    16    18    42
 C    -1.15680   1.43620  -3.60980    18    19     9    17
 C    -2.29970   0.68230  -3.38500    19    44    18    13
 C     3.39710   2.26670  -1.81550    20    21    22    23
 C     2.28710   3.00180  -2.09940    21    20     6    14
 C     3.48200   1.10180  -2.56890    22    92    20    15
 C     3.93510   2.29940  -0.50410    23    26    20    25
 C     3.24090   2.48990   1.80560    24    95    25    63
 C     3.21490   3.02710   0.51760    25    24     7    23
 C     4.63260   1.13530  -0.11060    26    96    91    23
 C    -4.01200  -0.00600  -2.10250    27    13    31    28
 C    -4.65730   0.00340  -0.87530    28    29    30    27
 C    -4.60100   1.17840  -0.16310    29    28    12    48
 C    -4.59620  -1.17230  -0.15940    30    28    33    46
 C    -3.35990  -1.12320  -2.59520    31    32    27    44
 C    -3.33320  -2.32070  -1.90980    32    31    33    38
 C    -3.98120  -2.29580  -0.66810    33    35    30    32
 C    -2.42000  -3.75700   0.25430    34    35    39    65
 C    -3.48800  -2.98430   0.40430    35    34    52    33
 C     0.12420  -3.23270  -2.66110    36    45    77    37
 C    -1.13860  -2.72460  -2.95770    37    36    43    38
 C    -2.20260  -3.13630  -2.08650    38    32    39    37
 C    -1.82220  -3.89720  -0.96210    39    78    34    38
 C     2.45320  -0.68650  -3.39990    40    15    41    82
 C     1.29490  -1.39570  -3.63480    41    40    45    42
 C     0.05670  -0.73840  -3.91720    42    41    43    17
 C    -1.15880  -1.44840  -3.60640    43    44    37    42
 C    -2.30330  -0.70010  -3.38870    44    19    43    31
 C     1.28990  -2.61870  -2.99030    45    36    41    85
 C    -4.41410  -1.17020   1.22190    46    47    52    30
 C    -4.27770   0.01070   1.90550    47    48    46    49
 C    -4.40960   1.18710   1.21630    48    47    55    29
 C    -3.32390   0.00150   2.90530    49    50    47    53
 C    -2.56260  -1.10790   3.21970    50    69    51    49
 C    -2.69780  -2.30580   2.55540    51    50    52    66
 C    -3.67540  -2.28940   1.55460    52    35    46    51
 C    -2.56120   1.11670   3.20810    53    58    54    49
 C    -2.69590   2.31550   2.54270    54    53    55    61
 C    -3.67220   2.30520   1.53510    55    56    48    54
 C    -3.49290   3.00740   0.38640    56    57    55    12
 C    -2.42020   3.77100   0.25030    57    56     2    62
 C    -1.36680   0.70020   3.73660    58    53    59    69
 C    -0.21210   1.46660   3.69610    59    58    71    60
 C    -0.26510   2.72980   2.98190    60    61    64    59
 C    -1.52570   3.11070   2.40930    61    62    54    60
 C    -1.46570   3.87270   1.24530    62     5    57    61
 C     2.12840   2.52070   2.65660    63    64    72    24
 C     0.96590   3.20420   2.38260    64    63     4    60
 C    -1.46700  -3.85950   1.25750    65    81    34    66
 C    -1.52550  -3.09720   2.42550    66    65    51    67
 C    -0.26570  -2.71370   2.99640    67    66    73    68
 C    -0.20800  -1.45050   3.70920    68    69    70    67
 C    -1.36730  -0.69540   3.74760    69    50    68    58
 C     0.98590  -0.72010   3.85720    70    75    68    71
 C     0.98520   0.73590   3.85280    71    72    59    70
 C     2.14730   1.35410   3.40600    72    94    63    71
 C     0.96010  -3.19650   2.38920    73    74    80    67
 C     2.12190  -2.50590   2.66190    74    73    75    86
 C     2.14570  -1.33790   3.40920    75    93    74    70
 C     1.68290  -3.79300  -1.13210    76    77    85    79
 C     0.40510  -3.98510  -1.54830    77    78    76    36
 C    -0.55240  -4.25360  -0.68860    78    77    39    81
 C     2.05970  -3.77250   0.22210    79    76    87    80
 C     0.96590  -3.92240   1.15950    80    81    73    79
 C    -0.28870  -4.21180   0.65770    81    65    78    80
 C     3.48290  -1.11410  -2.56530    82    92    84    40
 C     3.93330  -2.30000  -0.49610    83    90    84    87
 C     3.39310  -2.27590  -1.80840    84    85    82    83
 C     2.28720  -3.01470  -2.08420    85    84    76    45
 C     3.23100  -2.47540   1.80960    86    88    87    74
 C     3.21140  -3.02290   0.52780    87    86    79    83
 C     3.94260  -1.34790   2.10900    88    89    93    86
 C     4.64180  -0.68370   1.16250    89    88    90    96
 C     4.62990  -1.13130  -0.11840    90    89    91    83
 C     4.69790   0.00170  -0.90620    91    92    90    26
 C     4.11530  -0.00260  -2.10330    92    91    22    82
 C     3.26880  -0.66070   3.06890    93    94    75    88
 C     3.27480   0.68520   3.06470    94    93    72    95
 C     3.95750   1.36640   2.11300    95    96    94    24
 C     4.65120   0.69360   1.17420    96    95    26    89
