    96
C96-C1-76                                                                       
 C    -0.56640   3.02010  -2.79910     1     8     2    54
 C    -1.67080   2.31150  -3.13490     2     1     3     7
 C    -2.75830   2.58930  -2.31370     3     4    55     2
 C    -3.72750   1.66200  -2.07960     4     5     3    26
 C    -3.61750   0.47550  -2.67140     5     4    12     6
 C    -2.53430   0.15790  -3.46800     6    23     5     7
 C    -1.48300   1.03050  -3.72810     7     6     2    19
 C     0.67100   2.58210  -3.12970     8     1    67     9
 C     0.96270   1.32430  -3.70840     9     8    18    19
 C    -4.26930  -1.69730   0.04380    10    27    16    11
 C    -4.57720  -0.56800  -0.71040    11    10    12    25
 C    -4.07120  -0.63030  -2.02180    12     5    13    11
 C    -3.33190  -1.68070  -2.50910    13    15    12    23
 C    -1.92320  -3.42570  -1.97560    14    15    38    24
 C    -3.09780  -2.78380  -1.75130    15    14    13    16
 C    -3.56500  -2.77410  -0.45540    16    15    10    37
 C     3.13450   1.64260  -2.68780    17    91    68    18
 C     2.26070   0.81620  -3.44880    18     9    17    94
 C    -0.15950   0.47810  -3.95880    19     9     7    21
 C     1.36280  -1.48220  -3.51240    20    94    95    21
 C     0.04210  -0.96390  -3.86950    21    22    19    20
 C    -1.11610  -1.76390  -3.57530    22    24    23    21
 C    -2.35930  -1.18370  -3.38910    23     6    22    13
 C    -0.96810  -2.94950  -2.88240    24    96    22    14
 C    -4.64420   0.68630  -0.04470    25    26    11    29
 C    -4.23410   1.79440  -0.81380    26    44     4    25
 C    -3.99650  -1.61920   1.39150    27    28    10    31
 C    -4.05050  -0.41800   2.06190    28    27    30    29
 C    -4.38060   0.77050   1.35690    29    42    28    25
 C    -3.14220  -0.36220   3.11250    30    40    36    28
 C    -3.07730  -2.63700   1.70830    31    37    35    27
 C     0.66340  -4.06690   0.91890    32    90    48    33
 C    -0.64160  -3.93260   1.37940    33    32    39    34
 C    -0.82290  -3.15160   2.56450    34    33    35    50
 C    -2.10850  -2.52470   2.70690    35    36    31    34
 C    -2.21690  -1.35270   3.41730    36    52    35    30
 C    -2.83850  -3.35450   0.57190    37    31    39    16
 C    -1.25810  -4.07770  -0.96760    38    86    14    39
 C    -1.64980  -4.01350   0.37210    39    37    38    33
 C    -2.57050   0.81730   3.48580    40    41    45    30
 C    -2.83850   1.94400   2.83200    41    40    42    58
 C    -3.73680   1.94570   1.80970    42    41    43    29
 C    -3.32620   2.95890   0.99530    43    44    42    59
 C    -3.58610   2.88750  -0.30490    44    43    55    26
 C    -1.33950   0.59910   3.98800    45    40    52    46
 C    -0.32550   1.53500   3.84860    46    47    45    57
 C     0.91110   0.99450   3.90440    47    46    60    53
 C     1.76990  -3.52210   1.52470    48    32    49    80
 C     1.68560  -2.73680   2.66220    49    48    84    50
 C     0.34970  -2.53800   3.19470    50    51    49    34
 C     0.12890  -1.32110   3.90230    51    52    53    50
 C    -1.11970  -0.76990   3.98210    52    36    51    45
 C     1.14780  -0.39110   3.96210    53    85    51    47
 C    -0.46910   3.82100  -1.65070    54    66    56     1
 C    -2.67190   3.38190  -1.18080    55    44     3    56
 C    -1.48250   3.95910  -0.75930    56    54    55    64
 C    -0.52030   2.71410   3.07650    57    58    46    62
 C    -1.82350   2.86540   2.61190    58    59    41    57
 C    -2.12580   3.50090   1.44760    59    58    43    64
 C     1.97810   1.60510   3.32820    60    47    77    61
 C     1.88430   2.74900   2.49950    61    60    71    62
 C     0.56600   3.29630   2.31750    62    61    57    63
 C     0.25330   3.94680   1.05040    63    65    64    62
 C    -1.12900   4.01380   0.61950    64    59    56    63
 C     1.28630   3.96210   0.05260    65    66    72    63
 C     0.82830   3.87540  -1.28310    66    54    67    65
 C     1.51960   3.22740  -2.27080    67    68    66     8
 C     2.72100   2.78770  -2.06050    68    67    69    17
 C     3.31570   2.96190  -0.84170    69    75    68    72
 C     3.92170   1.85590   1.50240    70    74    79    71
 C     2.91040   2.85890   1.51880    71    72    61    70
 C     2.59760   3.46140   0.27770    72    71    69    65
 C     4.84930   0.09670   0.46220    73    76    78    74
 C     4.58370   1.44460   0.37800    74    75    70    73
 C     4.25800   1.98380  -0.80270    75    74    69    91
 C     4.74230  -0.67020  -0.65100    76    81    73    92
 C     2.91400   0.61560   3.17350    77    79    60    85
 C     4.37870  -0.37030   1.65850    78    73    79    83
 C     3.88410   0.73900   2.29390    79    77    70    78
 C     2.75250  -3.34020   0.55160    80    82    89    48
 C     4.20390  -1.90800  -0.55140    81    76    82    87
 C     3.76530  -2.43600   0.67110    82    80    81    83
 C     3.80050  -1.64410   1.83980    83    78    82    84
 C     2.74540  -1.78130   2.80590    84    85    49    83
 C     2.38790  -0.61540   3.47370    85    53    77    84
 C     0.03490  -4.10530  -1.33930    86    90    38    96
 C     3.51970  -2.13180  -1.75770    87    88    93    81
 C     2.49040  -3.00210  -1.85680    88    87    89    95
 C     2.19340  -3.67790  -0.66680    89    90    80    88
 C     0.97840  -4.17020  -0.41450    90    86    89    32
 C     4.15210   1.18670  -1.91960    91    92    17    75
 C     4.36980  -0.12920  -1.84710    92    91    76    93
 C     3.55630  -0.99270  -2.52940    93    92    87    94
 C     2.47220  -0.59240  -3.34930    94    93    18    20
 C     1.43740  -2.74210  -2.78420    95    96    88    20
 C     0.24990  -3.39200  -2.49870    96    24    86    95
