    96
C96-C2-83                                                                       
 C    -3.97850   1.94080   1.58430     1     2    25    10
 C    -4.41910   0.68890   1.65300     2     1     3    24
 C    -3.76060  -0.18370   2.46510     3     2    69     6
 C    -2.01060  -2.16210   2.90540     4    14    68     5
 C    -1.64220  -0.91240   3.43350     5     4     6    18
 C    -2.58000   0.13690   3.20160     6     9     5     3
 C     0.22130   0.69930   3.63670     7    20    18     8
 C    -0.73870   1.77580   3.33250     8     9    12     7
 C    -2.11960   1.47520   3.12490     9     6    10     8
 C    -2.88590   2.34610   2.30480    10    30     1     9
 C     1.10220   3.13250   2.52250    11    21    12    92
 C    -0.25520   3.00180   2.72060    12    11    29     8
 C     0.24780  -2.98340   2.73890    13    14    71    17
 C    -1.10970  -3.11200   2.53920    14     4    13    66
 C     2.88600  -2.32500   2.32680    15    94    72    16
 C     2.10430  -1.45470   3.14070    16    19    15    17
 C     0.72440  -1.75590   3.34820    17    16    13    18
 C    -0.23540  -0.68170   3.64340    18     5     7    17
 C     2.56960  -0.11280   3.20170    19    16    96    20
 C     1.62670   0.93680   3.42200    20    21    19     7
 C     2.00000   2.17950   2.88380    21    11    90    20
 C    -4.80560   0.67190  -0.65260    22    24    23    34
 C    -4.34920   1.95280  -0.72880    23    25    22    42
 C    -4.89350   0.03300   0.54140    24    48    22     2
 C    -3.98700   2.61460   0.39370    25    26    23     1
 C    -2.97980   3.49200   0.37570    26    25    27    30
 C    -2.26620   3.77810  -0.78710    27    28    26    41
 C    -1.01950   4.25980  -0.55120    28    27    43    31
 C    -1.06170   3.75340   1.81510    29    30    31    12
 C    -2.33660   3.39460   1.61740    30    29    10    26
 C    -0.44730   4.34550   0.71070    31    93    28    29
 C    -3.04410  -1.78110  -2.50960    32    49    33    38
 C    -4.05670  -1.37840  -1.66340    33    32    34    47
 C    -4.32740  -0.01720  -1.72890    34    22    33    35
 C    -3.55560   0.87840  -2.47700    35    42    37    34
 C    -1.36600   1.33090  -3.45040    36    37    40    45
 C    -2.47810   0.47440  -3.24160    37    38    35    36
 C    -2.27980  -0.89200  -3.26860    38    60    37    32
 C     1.05140   1.42920  -3.50900    39    46    61    40
 C    -0.09580   0.70030  -3.75760    40    39    59    36
 C    -2.49950   2.98780  -1.95720    41    42    27    45
 C    -3.56700   2.10150  -1.85630    42    35    23    41
 C     0.00770   4.08950  -1.44210    43    28    44    83
 C    -0.14430   3.26990  -2.55180    44    46    43    45
 C    -1.38900   2.64490  -2.80930    45    44    41    36
 C     1.03630   2.67230  -2.92810    46    39    44    86
 C    -4.20730  -2.08570  -0.42910    47    48    51    33
 C    -4.59190  -1.28020   0.66090    48    24    69    47
 C    -2.26170  -2.87280  -2.27180    49    32    50    53
 C    -2.40530  -3.62040  -1.12390    50    49    52    51
 C    -3.34380  -3.18260  -0.15880    51    67    50    47
 C    -1.21680  -4.21340  -0.73640    52    65    50    56
 C    -1.03570  -2.68630  -2.90910    53    60    55    49
 C     1.38410  -2.65650  -2.78990    54    55    58    63
 C     0.14100  -3.28830  -2.52160    55    53    56    54
 C    -0.01010  -4.10090  -1.40960    56    74    55    52
 C     3.55980  -2.10590  -1.83260    57    64    77    58
 C     2.49100  -2.99620  -1.92640    58    57    73    54
 C     0.09580  -0.72810  -3.75660    59    60    40    63
 C    -1.04990  -1.45360  -3.50520    60    53    38    59
 C     2.28440   0.86700  -3.27930    61    39    62    80
 C     2.48030  -0.50030  -3.24130    62    64    61    63
 C     1.36720  -1.35140  -3.44430    63    62    59    54
 C     3.55800  -0.88670  -2.47020    64    57    62    82
 C    -0.87540  -4.34680   0.57540    65    66    70    52
 C    -1.67910  -3.82140   1.49120    66    65    67    14
 C    -2.88350  -3.30520   1.17120    67    66    68    51
 C    -3.13580  -2.37130   2.12430    68    69    67     4
 C    -3.98370  -1.40660   1.89420    69    68     3    48
 C     0.45180  -4.33560   0.73840    70    65    74    71
 C     1.05670  -3.73350   1.83830    71    72    70    13
 C     2.33250  -3.37290   1.63540    72    71    15    75
 C     2.26520  -3.78420  -0.75270    73    74    75    58
 C     1.02070  -4.26990  -0.52830    74    73    56    70
 C     2.98580  -3.48050   0.40090    75    78    73    72
 C     4.80360  -0.67890  -0.64790    76    79    77    82
 C     4.34970  -1.96080  -0.71300    77    78    76    57
 C     3.99990  -2.60980   0.42200    78    75    77    94
 C     4.88010  -0.04700   0.55270    79    76    87    95
 C     3.04430   1.76600  -2.52640    80    86    81    61
 C     4.05520   1.36790  -1.67550    81    80    82    88
 C     4.33740   0.01110  -1.72940    82    76    81    64
 C     1.21070   4.21300  -0.75960    83    93    85    43
 C     3.33170   3.17780  -0.17590    84    91    85    88
 C     2.39470   3.60790  -1.15080    85    86    83    84
 C     2.26110   2.85810  -2.29530    86    80    85    46
 C     4.57100   1.27310   0.65170    87    79    89    88
 C     4.19310   2.07700  -0.44180    88    87    84    81
 C     3.96460   1.41350   1.88440    89    90    96    87
 C     3.11940   2.38590   2.10010    90    89    91    21
 C     2.86790   3.32410   1.15120    91    92    90    84
 C     1.67000   3.85080   1.47820    92    93    91    11
 C     0.88000   4.36720   0.55440    93    92    31    83
 C     3.98860  -1.93860   1.61120    94    95    78    15
 C     4.41800  -0.68510   1.68010    95    94    96    79
 C     3.75410   0.19480   2.46630    96    95    89    19
