    96
C96-C1-93                                                                       
 C     4.48950   0.81680  -1.07350     1     2     6    67
 C     4.65120  -0.46670  -0.79920     2     1     3    12
 C     4.64130  -0.92300   0.50610     3     4     2    66
 C     4.22310  -2.20440   0.42360     4     5     3    13
 C     3.47550  -2.71310   1.42540     5     4    14    63
 C     3.80110   1.21360  -2.18120     6     1    72    10
 C     0.86820  -0.10180  -3.95800     7     8     9    18
 C    -0.40580   0.47990  -4.03160     8    37    79     7
 C     1.95230   0.78170  -3.65250     9    10    73     7
 C     3.12810   0.30210  -3.04000    10     9    11     6
 C     3.25150  -1.07330  -2.74220    11    10    12    17
 C     4.09550  -1.40980  -1.64760    12    13     2    11
 C     3.90960  -2.50470  -0.87870    13    16    12     4
 C     2.47770  -3.58450   1.14410    14    15     5    22
 C     2.20340  -3.89730  -0.14150    15    23    14    16
 C     2.88900  -3.31760  -1.15270    16    13    15    19
 C     2.13360  -1.95030  -3.01760    17    19    18    11
 C     0.91050  -1.49180  -3.60260    18    17     7    39
 C     2.01860  -3.06920  -2.17420    19    16    41    17
 C     0.91510  -1.65630   3.57070    20    21    44    28
 C     1.84520  -2.42680   2.89710    21    20    22    63
 C     1.46620  -3.44320   2.03390    22    14    25    21
 C     0.92710  -4.11790  -0.51410    23    15    24    41
 C    -0.13860  -4.13940   0.37460    24    23    31    25
 C     0.14720  -3.73480   1.74170    25    22    27    24
 C    -2.10300  -3.07250   1.97480    26    27    53    33
 C    -0.83200  -3.06640   2.51240    27    26    25    28
 C    -0.48990  -1.99920   3.42880    28    29    27    20
 C    -1.50340  -0.99530   3.66650    29    30    54    28
 C    -1.01120   0.26570   3.96790    30    43    29    57
 C    -1.39630  -3.95230  -0.18310    31    24    33    35
 C    -3.54050  -2.95340   0.28960    32    36    33    84
 C    -2.39500  -3.54820   0.69320    33    32    31    26
 C    -2.71230  -2.88870  -1.89100    34    36    42    35
 C    -1.54060  -3.55870  -1.57610    35    34    40    31
 C    -3.72350  -2.63320  -1.00760    36    32    88    34
 C    -1.57940  -0.16870  -3.82740    37     8    38    91
 C    -1.59780  -1.50140  -3.49280    38    37    42    39
 C    -0.35920  -2.18700  -3.32450    39    38    40    18
 C    -0.38590  -3.26720  -2.36120    40    41    35    39
 C     0.80940  -3.64020  -1.82360    41    40    19    23
 C    -2.74400  -1.86860  -2.81780    42    34    38    96
 C     0.32610   0.56330   4.05300    43    46    30    44
 C     1.36020  -0.33720   3.86200    44    43    20    45
 C     2.62320   0.17590   3.37070    45    48    62    44
 C     0.44670   1.88490   3.72630    46    47    58    43
 C     1.56360   2.34640   3.19520    47    46    48    52
 C     2.64750   1.54250   3.04290    48    47    64    45
 C     1.31950   3.68830  -1.75510    49    75    71    50
 C     1.47620   4.00720  -0.40860    50    49    69    61
 C     0.30240   3.82660   1.72590    51    52    60    61
 C     1.51310   3.31640   2.22000    52    68    47    51
 C    -3.07600  -2.13560   2.28600    53    84    26    54
 C    -2.80550  -1.03030   3.08820    54    53    29    55
 C    -3.52630   0.17570   2.74690    55    56    86    54
 C    -2.88930   1.40500   2.97600    56    57    80    55
 C    -1.68570   1.42640   3.60650    57    56    58    30
 C    -0.74570   2.40800   3.38710    58    46    57    60
 C    -2.04710   3.34130   1.73140    59    60    81    80
 C    -0.86000   3.38400   2.39640    60    59    58    51
 C     0.25100   4.16420   0.32750    61    50    51    82
 C     3.52080  -0.62850   2.64020    62    63    45    66
 C     3.10250  -1.95250   2.49480    63     5    62    21
 C     3.38690   2.07850   2.01970    64    65    48    68
 C     4.23540   1.30450   1.27020    65    64    67    66
 C     4.35030  -0.06830   1.59260    66     3    65    62
 C     4.32370   1.72530  -0.05480    67     1    70    65
 C     2.65360   3.16140   1.49740    68    52    69    64
 C     2.68530   3.52240   0.17630    69    68    70    50
 C     3.58280   2.76890  -0.57360    70    72    67    69
 C     2.22270   2.89520  -2.44350    71    72    73    49
 C     3.32300   2.45350  -1.87350    72    71    70     6
 C     1.57950   2.11880  -3.35500    73    76    71     9
 C    -1.12410   3.65420  -1.72360    74    75    82    77
 C     0.10460   3.49550  -2.35210    75    49    76    74
 C     0.31080   2.56990  -3.34690    76    79    73    75
 C    -2.23980   2.88110  -2.22770    77    78    93    74
 C    -1.91920   1.95350  -3.23460    78    79    91    77
 C    -0.66900   1.79090  -3.72140    79    76    78     8
 C    -3.05180   2.43930   2.04170    80    87    59    56
 C    -2.14600   3.65950   0.39080    81    59    92    82
 C    -1.03040   4.02930  -0.34860    82    81    74    61
 C    -4.64090  -0.98460   0.92570    83    84    86    90
 C    -3.98290  -2.11320   1.26120    84    83    32    53
 C    -4.51190   1.18060   0.73650    85    87    89    86
 C    -4.40210   0.14160   1.64560    86    83    85    55
 C    -3.80860   2.29580   0.92760    87    85    80    92
 C    -4.36380  -1.48480  -1.35270    88    96    90    36
 C    -4.70220   0.69690  -0.53290    89    90    85    94
 C    -4.83860  -0.65360  -0.39380    90    88    89    83
 C    -2.55180   0.74990  -3.38340    91    95    78    37
 C    -3.24820   2.98590  -0.11660    92    87    81    93
 C    -3.34660   2.52290  -1.43000    93    92    77    94
 C    -4.09160   1.30820  -1.65130    94    89    95    93
 C    -3.64330   0.39540  -2.64820    95    91    96    94
 C    -3.76310  -0.97530  -2.45470    96    88    95    42
