    96
C96-C1-59                                                                       
 C     2.80210  -2.87560  -1.88410     1     7     2    53
 C     1.66290  -2.82240  -2.67940     2     3     1    10
 C     0.60110  -3.49500  -2.17710     3     2     4    52
 C    -0.68850  -3.19190  -2.52020     4     3    29     6
 C     0.07840  -1.27130  -3.76960     5    10     6    11
 C    -1.02640  -2.09880  -3.32670     6     4    14     5
 C     3.76680  -1.93720  -1.94690     7     1     8    70
 C     3.57040  -0.86150  -2.74950     8     7    94     9
 C     2.41340  -0.71660  -3.45890     9     8    22    10
 C     1.41530  -1.68050  -3.49480    10     9     2     5
 C    -0.14790   0.15210  -3.92920    11    12    23     5
 C    -1.44770   0.57260  -3.74460    12    11    13    26
 C    -2.50200  -0.25170  -3.40350    13    16    12    14
 C    -2.33980  -1.60530  -3.12540    14    13     6    15
 C    -3.23250  -2.16820  -2.14410    15    28    18    14
 C    -3.45540   0.52690  -2.80680    16    17    19    13
 C    -4.27350   0.01130  -1.87900    17    16    18    37
 C    -4.17240  -1.30080  -1.55080    18    17    30    15
 C    -3.01110   1.80760  -2.71510    19    16    20    26
 C    -3.37460   2.62960  -1.66050    20    21    19    36
 C    -2.40100   3.54170  -1.33550    21    82    20    27
 C     2.14900   0.64320  -3.50430    22    23     9    86
 C     0.88330   1.13430  -3.70150    23    22    11    24
 C     0.59380   2.43730  -3.14250    24    25    23    88
 C    -0.77380   2.76540  -2.97010    25    26    27    24
 C    -1.75610   1.85240  -3.31500    26    25    12    19
 C    -1.16920   3.63090  -1.96380    27    91    25    21
 C    -2.77400  -3.20900  -1.31520    28    29    32    15
 C    -1.50910  -3.68940  -1.53160    29    28     4    42
 C    -4.52750  -1.37810  -0.22540    30    31    18    33
 C    -4.02310  -2.33380   0.55090    31    30    45    32
 C    -3.18020  -3.27770   0.01590    32    31    40    28
 C    -4.72120  -0.11050   0.27420    33    30    37    34
 C    -4.31260   0.21290   1.58370    34    35    33    44
 C    -3.87310   1.51150   1.73000    35    34    38    60
 C    -4.17690   2.06990  -0.63250    36    37    38    20
 C    -4.61990   0.77400  -0.78280    37    36    17    33
 C    -3.85380   2.41960   0.67680    38    83    35    36
 C    -2.66060  -2.94700   2.10630    39    43    45    40
 C    -2.33100  -3.69960   1.01880    40    39    32    41
 C    -1.03280  -4.13790   0.80310    41    42    40    49
 C    -0.68070  -4.17840  -0.52160    42    52    41    29
 C    -1.71290  -2.62030   2.97180    43    39    46    48
 C    -3.72390  -0.77400   2.40080    44    45    34    47
 C    -3.66310  -2.06490   1.84440    45    39    31    44
 C    -1.72210  -1.39260   3.57500    46    64    43    47
 C    -2.66770  -0.40080   3.30890    47    46    61    44
 C    -0.42890  -3.07860   2.82370    48    54    43    49
 C     0.00370  -3.85200   1.74330    49    48    41    50
 C     1.38310  -3.71950   1.36290    50    51    49    57
 C     1.66760  -3.91470  -0.02110    51    53    52    50
 C     0.60820  -4.07100  -0.90690    52    42    51     3
 C     2.78830  -3.36010  -0.57170    53    51    59     1
 C     0.38100  -2.19640   3.45950    54    48    56    64
 C     2.21800  -0.83410   3.45830    55    66    56    65
 C     1.71150  -2.08040   3.15470    56    54    55    57
 C     2.29510  -2.85100   2.10470    57    56    58    50
 C     3.47930  -2.30320   1.48870    58    59    67    57
 C     3.70960  -2.63450   0.14590    59    53    70    58
 C    -2.85350   1.86020   2.61420    60    75    61    35
 C    -2.18150   0.94330   3.40910    61    60    47    62
 C    -0.81020   1.25730   3.75280    62    63    61    77
 C     0.04680   0.14760   4.03250    63    64    65    62
 C    -0.42650  -1.13270   3.90360    64    46    63    54
 C     1.40860   0.24010   3.85710    65    80    63    55
 C     3.32120  -0.32540   2.84320    66    55    67    71
 C     4.01460  -1.02780   1.87720    67    66    68    58
 C     4.66480  -0.21390   0.93170    68    69    74    67
 C     4.83670  -0.60880  -0.35260    69    70    68    93
 C     4.37030  -1.80820  -0.73330    70    69     7    59
 C     3.20340   1.05200   2.85720    71    73    80    66
 C     3.03970   2.90210   1.50000    72    73    78    95
 C     3.77170   1.80900   1.86950    73    74    72    71
 C     4.49790   1.17020   0.90880    74    73    92    68
 C    -2.24090   2.99430   2.12330    75    83    60    76
 C    -0.91290   3.32590   2.38190    76    75    85    77
 C    -0.16740   2.46940   3.25430    77    79    76    62
 C     1.84690   3.25250   2.11060    78    84    72    79
 C     1.25420   2.49650   3.12480    79    80    78    77
 C     2.00660   1.38930   3.45610    80    65    79    71
 C    -0.90760   4.25210   0.14110    81    82    85    91
 C    -2.19880   3.91430  -0.03760    82    83    81    21
 C    -2.88340   3.32550   0.95280    83    82    38    75
 C     1.10450   3.94730   1.21310    84    78    85    89
 C    -0.24430   4.04320   1.34130    85    84    81    76
 C     3.13100   1.30130  -2.77920    86    94    22    87
 C     2.87670   2.47740  -2.07940    87    86    88    96
 C     1.59010   3.07470  -2.27430    88    90    87    24
 C     1.77440   3.92300  -0.01240    89    95    90    84
 C     1.08680   3.89490  -1.21570    90    91    89    88
 C    -0.25330   4.12850  -1.08520    91    27    90    81
 C     4.45080   1.58830  -0.42040    92    93    74    96
 C     4.68020   0.48400  -1.17250    93    94    92    69
 C     4.02550   0.35390  -2.34770    94    93     8    86
 C     2.96440   3.29730   0.16840    95    89    96    72
 C     3.59790   2.61690  -0.84320    96    95    92    87
