    96
C96-C2-124                                                                      
 C     2.16450  -3.29830   1.89080     1     7    59     2
 C     0.89700  -3.80440   1.63350     2     1    57    10
 C    -0.65210  -4.18380  -0.26910     3    10     4    11
 C    -1.66720  -3.94940   0.66100     4     5    58     3
 C    -2.89350  -3.49580   0.30020     5     6     4    15
 C    -3.15010  -3.17630  -0.97830     6     5    12    16
 C     3.14680  -3.19490   0.94990     7     8    64     1
 C     2.88900  -3.51030  -0.33320     8     7    94     9
 C     1.65650  -3.96010  -0.67660     9     8    10    20
 C     0.64290  -4.18930   0.25010    10     9     3     2
 C    -0.90910  -3.79100  -1.64970    11    12    21     3
 C    -2.17370  -3.27910  -1.91740    12     6    24    11
 C    -4.19610  -1.69180   1.02900    13    28    15    14
 C    -4.45940  -1.36040  -0.26520    14    16    13    36
 C    -3.40390  -2.75050   1.31390    15    13     5    42
 C    -3.93830  -2.10310  -1.25960    16    17    14     6
 C    -3.47660  -1.51550  -2.37850    17    16    18    24
 C    -3.57260  -0.13560  -2.55060    18    19    17    35
 C    -2.60860   0.34400  -3.38720    19    37    18    25
 C     1.41720  -3.48930  -1.97380    20    21    86     9
 C     0.15100  -3.32080  -2.48370    21    20    11    22
 C    -0.03170  -2.25740  -3.45460    22    23    21    88
 C    -1.36200  -1.75100  -3.57230    23    24    25    22
 C    -2.38980  -2.27610  -2.83450    24    23    12    17
 C    -1.55800  -0.42530  -3.90790    25    91    23    19
 C    -2.84210   0.74660   3.15980    26    43    27    32
 C    -3.25670  -0.51720   2.86690    27    26    28    41
 C    -4.10320  -0.57450   1.76730    28    13    27    29
 C    -4.32660   0.50730   0.90470    29    31    36    28
 C    -3.41620   2.58640   0.03590    30    31    34    39
 C    -3.79990   1.75340   1.13780    31    29    32    30
 C    -3.12840   1.85890   2.35120    32    52    31    26
 C    -1.60540   4.00070  -0.74400    33    40    78    34
 C    -2.40790   3.58410   0.31810    34    33    51    30
 C    -4.06800   0.70400  -1.49330    35    36    18    39
 C    -4.50020   0.01000  -0.36560    36    14    29    35
 C    -2.18700   1.63420  -3.30980    37    19    82    38
 C    -2.63310   2.50550  -2.31040    38    40    37    39
 C    -3.54020   2.03520  -1.31810    39    38    35    30
 C    -1.69850   3.47850  -2.00200    40    33    38    85
 C    -2.37030  -1.60910   3.17540    41    42    45    27
 C    -2.49360  -2.70900   2.32980    42    15    58    41
 C    -1.67460   0.98450   3.81440    43    26    47    44
 C    -0.78660  -0.04310   4.13570    44    46    43    45
 C    -1.08400  -1.38810   3.76380    45    44    41    56
 C     0.53190   0.37850   4.17090    46    54    44    50
 C    -1.27830   2.26720   3.49670    47    49    43    52
 C     0.44470   3.53290   2.59350    48    49    53    65
 C     0.03930   2.62170   3.51850    49    50    48    47
 C     0.93700   1.66730   3.86250    50    49    67    46
 C    -1.78620   3.67650   1.60070    51    52    53    34
 C    -2.16410   2.78680   2.57170    52    32    51    47
 C    -0.43850   4.06650   1.67960    53    79    48    51
 C     1.56790  -0.44410   3.88920    54    46    55    60
 C     1.35800  -1.76620   3.54890    55    59    54    56
 C     0.03020  -2.27730   3.43580    56    55    57    45
 C    -0.16210  -3.33960   2.46800    57    58     2    56
 C    -1.42390  -3.50280   1.96150    58    57    42     4
 C     2.38590  -2.28610   2.80100    59    55     1    62
 C     2.62200   0.32750   3.38460    60    67    61    54
 C     3.57330  -0.15660   2.54110    61    60    62    69
 C     3.47930  -1.53280   2.34990    62    64    61    59
 C     4.45860  -1.37750   0.23740    63    64    93    70
 C     3.94080  -2.12310   1.23350    64    62    63     7
 C     1.70550   3.46230   1.99570    65    71    66    48
 C     2.63760   2.48760   2.30960    66    65    67    68
 C     2.20350   1.61790   3.31290    67    60    50    66
 C     3.54040   2.01900   1.30830    68    66    69    73
 C     4.06210   0.68390   1.48270    69    70    61    68
 C     4.48670  -0.00700   0.34610    70    63    76    69
 C     1.61060   3.99490   0.74450    71    65    79    72
 C     2.41670   3.57800  -0.31340    72    71    81    73
 C     3.42000   2.57540  -0.04370    73    75    72    68
 C     3.14000   1.85480  -2.35430    74    80    75    95
 C     3.80730   1.74180  -1.14000    75    76    74    73
 C     4.32500   0.48950  -0.92610    76    75    70    92
 C     0.44880   4.07850  -1.68210    77    78    85    81
 C    -0.28820   4.39760  -0.59320    78    79    77    33
 C     0.29500   4.39380   0.59410    79    78    53    71
 C     2.16790   2.78220  -2.56640    80    74    81    83
 C     1.79100   3.67600  -1.59510    81    80    77    72
 C    -0.92240   1.68200  -3.86780    82    84    91    37
 C     1.28250   2.26460  -3.49870    83    84    89    80
 C    -0.03150   2.64340  -3.51290    84    85    82    83
 C    -0.43910   3.55420  -2.59380    85    84    77    40
 C     2.50180  -2.71150  -2.34530    86    94    20    87
 C     2.37060  -1.60930  -3.18980    87    86    88    96
 C     1.08650  -1.37270  -3.77770    88    90    87    22
 C     1.69010   0.98610  -3.82170    89    95    83    90
 C     0.78820  -0.02680  -4.15140    90    91    89    88
 C    -0.52410   0.39870  -4.19290    91    25    90    82
 C     4.11170  -0.60070  -1.78620    92    93    96    76
 C     4.21660  -1.72420  -1.05410    93    92    94    63
 C     3.42370  -2.77570  -1.33890    94    93     8    86
 C     2.85950   0.74880  -3.17210    95    89    96    74
 C     3.26100  -0.51780  -2.88580    96    95    92    87
