    96
C96-C2-174                                                                      
 C     0.21400  -1.69510  -3.79690     1     6     2    59
 C     1.27750  -2.34640  -3.26610     2     1     3     9
 C     2.43860  -1.59850  -3.24420     3     4     2    58
 C     3.41960  -1.84100  -2.34220     4     5     3    32
 C     3.21870  -2.78020  -1.39900     5     4    18    10
 C    -1.05810  -2.04940  -3.50560     6     1    70     7
 C    -1.41070  -3.02050  -2.55710     7     6    14     8
 C    -0.31650  -3.62990  -1.84650     8     9     7    12
 C     1.01750  -3.32850  -2.26230     9    10     2     8
 C     2.03820  -3.48100  -1.33250    10     5    25     9
 C    -1.80460  -3.77790   0.04380    11    26    13    12
 C    -0.52870  -3.99460  -0.45760    12    11    24     8
 C    -2.86170  -3.24510  -0.67970    13    14    11    96
 C    -2.68370  -2.83610  -1.97870    14    13    15     7
 C    -3.48380  -1.74230  -2.32770    15    71    94    14
 C     4.32200  -1.06590   1.47790    16    21    33    17
 C     4.49300  -1.47720   0.16500    17    16    18    31
 C     3.73780  -2.60390  -0.15370    18     5    19    17
 C     2.86310  -3.23640   0.71940    19    20    25    18
 C     2.68790  -2.81090   2.01040    20    19    21    29
 C     3.47080  -1.70410   2.35170    21    23    16    20
 C     1.82460  -0.89590   3.76120    22    23    30    45
 C     3.00150  -0.74150   3.19610    23    22    36    21
 C     0.53960  -3.99190   0.50430    24    25    12    28
 C     1.81180  -3.77940  -0.00490    25    10    24    19
 C    -2.03540  -3.47490   1.37280    26    89    11    27
 C    -1.00800  -3.31730   2.29910    27    26    28    92
 C     0.32700  -3.61590   1.88930    28    27    29    24
 C     1.41490  -2.98990   2.59540    29    30    20    28
 C     1.05650  -2.00820   3.53190    30    93    22    29
 C     4.67550  -0.48040  -0.82950    31    32    35    17
 C     4.10240  -0.68920  -2.07230    32     4    31    40
 C     4.31900   0.27210   1.81880    33    34    36    16
 C     4.48670   1.20260   0.88100    34    33    49    35
 C     4.66290   0.84990  -0.43850    35    34    38    31
 C     3.44010   0.49750   2.85190    36    23    33    47
 C     3.60520   2.76100  -0.30930    37    41    38    49
 C     4.07670   1.84290  -1.20240    38    37    35    39
 C     3.41690   1.61830  -2.41830    39    40    38    55
 C     3.49320   0.30880  -2.82930    40    58    39    32
 C     2.56190   3.50070  -0.63030    41    37    43    54
 C     0.56260   4.17030  -0.33430    42    44    43    60
 C     1.70250   3.91270   0.33470    43    42    41    52
 C    -0.58160   4.16880   0.29200    44    42    69    53
 C     1.01770   0.18670   4.01360    45    83    22    46
 C     1.34320   1.49480   3.61100    46    45    47    50
 C     2.63200   1.65570   2.99430    47    48    36    46
 C     2.83330   2.65060   2.01060    48    52    47    49
 C     3.78110   2.36900   0.99090    49    34    37    48
 C     0.21330   2.33570   3.31080    50    51    46    86
 C     0.47470   3.35620   2.33540    51    53    52    50
 C     1.73970   3.48010   1.68460    52    48    43    51
 C    -0.64720   3.78770   1.62030    53    88    44    51
 C     1.89530   3.34090  -1.83600    54    60    55    41
 C     2.24360   2.36540  -2.75590    55    54    39    56
 C     1.14580   1.81350  -3.51180    56    57    55    63
 C     1.34280   0.46180  -3.92220    57    59    58    56
 C     2.47710  -0.24250  -3.55830    58    40    57     3
 C     0.23620  -0.32510  -4.11150    59    68    57     1
 C     0.62090   3.77890  -1.65770    60    54    42    62
 C    -1.75970   3.45340  -1.71680    61    65    69    62
 C    -0.49230   3.33200  -2.37180    62    60    61    63
 C    -0.23650   2.30470  -3.33820    63    62    67    56
 C    -3.78650   2.34400  -1.01080    64    82    74    65
 C    -2.84350   2.61420  -2.04300    65    61    66    64
 C    -2.64320   1.61130  -3.01880    66    65    72    67
 C    -1.35510   1.45150  -3.63380    67    68    66    63
 C    -1.03370   0.14150  -4.01760    68    59    70    67
 C    -1.72390   3.89640  -0.36850    69    44    78    61
 C    -1.82820  -0.94220  -3.75040    70    71    68     6
 C    -3.00460  -0.78730  -3.18360    71    70    72    15
 C    -3.45130   0.45330  -2.85160    72    71    75    66
 C    -4.67140   0.83170   0.41440    73    74    81    77
 C    -4.49700   1.17770  -0.90950    74    75    64    73
 C    -4.33620   0.22880  -1.82930    75    74    72    94
 C    -4.11010  -0.69130   2.06790    76    90    77    79
 C    -4.68940  -0.49530   0.82300    77    76    73    95
 C    -2.58540   3.50390   0.60220    78    82    69    88
 C    -3.49440   0.31500   2.81270    79    84    80    76
 C    -3.43090   1.61890   2.38890    80    79    81    87
 C    -4.08610   1.83620   1.16930    81    82    73    80
 C    -3.62260   2.75650   0.28400    82    78    81    64
 C    -0.24930  -0.29080   4.11990    83    45    85    93
 C    -2.47680  -0.23010   3.54630    84    79    85    91
 C    -1.35070   0.49500   3.91090    85    83    84    86
 C    -1.16770   1.84330   3.48740    86    85    87    50
 C    -2.26460   2.38300   2.72480    87    88    80    86
 C    -1.92330   3.35770   1.80750    88    53    87    78
 C    -3.22490  -2.77850   1.42660    89    90    96    26
 C    -3.41510  -1.83080   2.36400    90    89    91    76
 C    -2.43640  -1.59330   3.26370    91    90    92    84
 C    -1.26920  -2.32930   3.29770    92    93    91    27
 C    -0.21500  -1.66380   3.82370    93    30    92    83
 C    -4.35220  -1.10210  -1.47040    94    15    75    95
 C    -4.51430  -1.50540  -0.15600    95    94    96    77
 C    -3.75330  -2.62060   0.18210    96    89    13    95
