    96
C96-C1-138                                                                      
 C    -1.10210  -4.13530  -0.63150     1     7    59     2
 C    -1.05500  -3.65620  -1.93740     2     1    57     3
 C     0.25500  -3.36800  -2.45250     3     4     2     9
 C     0.30380  -2.32570  -3.42990     4     6     5     3
 C    -0.84520  -1.60240  -3.73820     5    58     4    18
 C     1.46530  -1.61620  -3.60630     6    12     4    16
 C     0.00690  -4.31230   0.13250     7     1    60     8
 C     1.30620  -4.08050  -0.29820     8     7    14     9
 C     1.45750  -3.59990  -1.64740     9    11     8     3
 C     3.52710  -2.51890  -0.88150    10    13    11    28
 C     2.62920  -2.82030  -1.90990    11    12    10     9
 C     2.61110  -1.85800  -2.89330    12     6    11    30
 C     3.32530  -2.95740   0.39580    13    10    14    96
 C     2.23190  -3.72530   0.72280    14    13    15     8
 C     1.75340  -3.49220   2.01980    15    62    93    14
 C     1.47670  -0.27710  -3.97540    16    22     6    17
 C     0.31740   0.47550  -4.11840    17    18    16    25
 C    -0.83050  -0.23740  -4.03260    18    17    19     5
 C    -2.01250   0.31940  -3.62240    19    18    50    21
 C    -0.88660   2.41710  -3.17380    20    25    26    21
 C    -2.11740   1.64430  -3.17730    21    19    32    20
 C     2.63670   0.24160  -3.52210    22    23    16    30
 C     2.69110   1.53030  -3.18410    23    22    92    24
 C     1.54160   2.30320  -3.25600    24    46    23    25
 C     0.31140   1.83010  -3.70070    25    24    17    20
 C    -0.72170   3.43620  -2.15400    26    27    47    20
 C    -1.78230   3.63340  -1.29510    27    26    31    42
 C     4.26120  -1.32100  -0.81570    28    87    29    10
 C     4.18750  -0.33890  -1.78290    29    28    30    91
 C     3.36030  -0.69010  -2.84250    30    22    12    29
 C    -2.97800   2.93270  -1.38130    31    34    27    32
 C    -3.19130   1.88070  -2.27370    32    31    21    33
 C    -4.06020   0.81470  -1.82130    33    49    36    32
 C    -3.54670   2.96120  -0.13530    34    35    37    31
 C    -4.30980   1.94320   0.29270    35    34    36    38
 C    -4.57910   0.90060  -0.51220    36    35    51    33
 C    -2.69260   3.58280   0.71230    37    40    34    42
 C    -4.15150   1.48740   1.58130    38    39    54    35
 C    -3.25410   2.05330   2.39240    39    38    40    63
 C    -2.54740   3.13250   1.97870    40    43    37    39
 C    -0.36020   4.17100   0.62990    41    42    45    44
 C    -1.60550   4.02490   0.03420    42    37    41    27
 C    -1.34260   3.14190   2.58020    43    40    44    72
 C    -0.21770   3.70670   2.00010    44    43    80    41
 C     0.73350   4.14560  -0.24720    45    48    41    47
 C     1.66560   3.24070  -2.26570    46    24    84    47
 C     0.55970   3.80110  -1.64310    47    46    26    45
 C     1.96430   3.84300   0.32600    48    86    79    45
 C    -3.82600  -0.50030  -2.27330    49    50    53    33
 C    -2.80920  -0.71020  -3.17080    50    49    19    58
 C    -4.69200  -0.19360   0.32050    51    52    36    54
 C    -4.43070  -1.40550  -0.12430    52    51    67    53
 C    -4.04120  -1.58980  -1.42910    53    52    56    49
 C    -4.31560   0.14390   1.61060    54    38    51    65
 C    -3.20580  -3.18090  -0.17360    55    59    56    67
 C    -3.27050  -2.73130  -1.46110    56    55    53    57
 C    -2.21640  -2.92920  -2.34380    57    58    56     2
 C    -2.06030  -1.88800  -3.22070    58     5    57    50
 C    -2.15090  -3.85550   0.22580    59    55    61     1
 C    -0.40150  -4.07900   1.43670    60    62    61     7
 C    -1.69980  -3.70600   1.50080    61    60    59    70
 C     0.44460  -3.61970   2.33040    62    60    15    71
 C    -2.47690   1.30200   3.22680    63    39    72    64
 C    -2.56520  -0.09630   3.30870    64    63    68    65
 C    -3.55840  -0.71490   2.45690    65    66    54    64
 C    -3.34830  -2.02990   1.98130    66    70    65    67
 C    -3.84220  -2.32920   0.68430    67    52    55    66
 C    -1.37800  -0.78040   3.71630    68    64    69    74
 C    -1.24980  -2.15010   3.29700    69    71    70    68
 C    -2.21010  -2.74340   2.41470    70    66    61    69
 C     0.04620  -2.67290   3.24480    71    77    62    69
 C    -1.29650   2.00770   3.40000    72    73    63    43
 C    -0.12170   1.41820   3.78160    73    72    83    74
 C    -0.14750  -0.01460   4.00920    74    76    73    68
 C     2.27310   0.03820   3.63670    75    82    76    94
 C     1.11550  -0.67110   3.93890    76    77    75    74
 C     1.18000  -1.99130   3.55990    77    71    76    93
 C     3.21760   2.63040   1.66340    78    81    85    79
 C     2.09040   3.41420   1.63400    79    78    48    80
 C     1.00430   3.23390   2.48480    80    79    44    83
 C     3.29310   1.63100   2.53690    81    78    88    82
 C     2.23630   1.37690   3.37590    82    75    81    83
 C     1.06710   2.11550   3.39870    83    82    73    80
 C     2.87490   3.01000  -1.64910    84    86    92    46
 C     3.79730   2.51140   0.43170    85    86    78    90
 C     3.01870   3.30080  -0.36180    86    84    85    48
 C     4.45810  -1.01770   0.51100    87    28    96    89
 C     3.96600   0.49410   2.21390    88    81    94    89
 C     4.53930   0.30290   0.94420    89    87    88    90
 C     4.44680   1.34130  -0.01690    90    85    89    91
 C     4.28250   1.02710  -1.40010    91    92    29    90
 C     3.51020   1.92250  -2.16820    92    84    23    91
 C     2.25790  -2.52700   2.85040    93    95    15    77
 C     3.36160  -0.50610   2.94440    94    95    88    75
 C     3.34590  -1.79280   2.50070    95    93    94    96
 C     3.89510  -2.03150   1.26230    96    95    87    13
