    96
C96-C1-63                                                                       
 C    -4.21240  -1.91690  -0.31030     1     2    14    60
 C    -3.52090  -2.53010  -1.31720     2     1     3     7
 C    -3.29160  -1.71170  -2.42850     3     4    57     2
 C    -2.17990  -1.86230  -3.19140     4     5     3    18
 C    -1.32430  -2.84430  -2.95120     5     4     8    19
 C    -2.23850  -3.73580   0.39680     6     9    12     7
 C    -2.56430  -3.51150  -0.98570     7     8     2     6
 C    -1.51030  -3.67950  -1.89120     8    11     5     7
 C    -0.93940  -4.14740   0.67380     9    10    94     6
 C     0.00800  -4.36510  -0.29900    10    11    29     9
 C    -0.26490  -4.08760  -1.57120    11    10     8    20
 C    -2.86830  -3.00100   1.42470    12    14     6    13
 C    -2.10040  -2.57890   2.58770    13    15    93    12
 C    -3.92580  -2.17060   1.02720    14    62     1    12
 C    -2.48050  -1.37940   3.17720    15    63    13    90
 C    -0.40640  -0.41190  -3.94340    16    18    32    17
 C     0.53520  -1.49020  -3.70500    17    19    23    16
 C    -1.74880  -0.66350  -3.66910    18     4    30    16
 C     0.01120  -2.67530  -3.21150    19    20     5    17
 C     0.70140  -3.49590  -2.36400    20    19    11    21
 C     1.99890  -3.25220  -1.94450    21    20    28    22
 C     2.67440  -2.10600  -2.49660    22    21    26    23
 C     1.89360  -1.23770  -3.37130    23    24    17    22
 C     2.24750   0.09990  -3.42110    24    47    23    31
 C     4.06180  -2.10850  -0.49820    25    27    84    26
 C     3.77240  -1.53450  -1.75740    26    25    46    22
 C     3.29920  -3.11150   0.05330    27    28    25    89
 C     2.29580  -3.71110  -0.63020    28    27    29    21
 C     1.25380  -4.18560   0.16880    29    10    87    28
 C    -2.66290   0.27550  -3.24150    30    18    34    57
 C     1.33110   1.13280  -3.63960    31    37    32    24
 C    -0.03060   0.94260  -3.84720    32    31    16    33
 C    -0.95810   1.97040  -3.40050    33    35    34    32
 C    -2.32080   1.60550  -3.05890    34    30    50    33
 C    -0.37640   3.11000  -2.74910    35    36    38    33
 C    -1.16500   3.71120  -1.77530    36    49    41    35
 C     1.84250   2.25810  -3.05430    37    31    38    42
 C     1.01980   3.24530  -2.57460    38    37    39    35
 C     1.52820   3.85770  -1.42430    39    40    45    38
 C     0.69450   4.26630  -0.44240    40    41    39    68
 C    -0.60320   4.23870  -0.62670    41    40    55    36
 C     3.06370   1.94670  -2.48840    42    44    37    47
 C     4.30610   1.86350  -0.51250    43    44    48    79
 C     3.53620   2.59070  -1.36470    44    43    45    42
 C     2.70080   3.51740  -0.81720    45    44    39    81
 C     4.10810  -0.15610  -1.88230    46    47    48    26
 C     3.31870   0.60740  -2.71810    47    24    46    42
 C     4.64510   0.54330  -0.78520    48    85    43    46
 C    -2.42700   3.33030  -1.44880    49    36    52    50
 C    -3.09880   2.28180  -2.06030    50    49    34    51
 C    -4.09830   1.61080  -1.26870    51    54    56    50
 C    -2.59490   3.63940  -0.11160    52    53    55    49
 C    -3.45350   2.98880   0.63210    53    52    54    65
 C    -4.25810   2.02970   0.07230    54    58    53    51
 C    -1.42730   4.08230   0.42700    55    41    52    67
 C    -4.35080   0.23770  -1.50050    56    57    60    51
 C    -3.64210  -0.37770  -2.49460    57    56     3    30
 C    -4.56680   1.18830   1.09800    58    59    54    61
 C    -4.77610  -0.12160   0.85650    59    58    60    62
 C    -4.67790  -0.59780  -0.41270    60    59     1    56
 C    -3.84810   1.58310   2.20090    61    64    65    58
 C    -4.29660  -1.06170   1.71710    62    63    14    59
 C    -3.56400  -0.66460   2.77850    63    62    64    15
 C    -3.32620   0.64960   3.01230    64    61    63    74
 C    -3.11660   2.68360   1.93370    65    61    53    66
 C    -1.83270   2.94330   2.47590    66    67    65    73
 C    -0.95320   3.73930   1.72350    67    66    69    55
 C     1.24140   4.03610   0.79800    68    81    40    69
 C     0.45000   3.65360   1.90030    69    68    67    71
 C     2.41950   2.33180   2.56190    70    75    80    71
 C     1.04080   2.69620   2.79560    71    69    70    72
 C     0.13860   1.76670   3.47200    72    73    77    71
 C    -1.27170   1.93440   3.32920    73    74    72    66
 C    -2.07480   0.79830   3.54090    74    64    90    73
 C     2.82310   1.08310   3.02950    75    82    76    70
 C     1.94810   0.16360   3.57460    76    77    75    95
 C     0.62260   0.42870   3.80010    77    76    91    72
 C     4.52750   0.82100   1.40270    78    79    82    85
 C     4.17220   2.00820   0.87080    79    78    43    80
 C     3.17620   2.81400   1.43990    80    81    79    70
 C     2.51570   3.61650   0.56400    81    80    68    45
 C     3.86820   0.37020   2.48980    82    78    86    75
 C     4.00180  -1.83160   1.69260    83    89    86    84
 C     4.57900  -1.36860   0.54240    84    85    83    25
 C     4.85590  -0.06480   0.40560    85    84    48    78
 C     3.61720  -0.94900   2.64960    86    82    83    95
 C     1.11430  -3.86800   1.51050    87    88    94    29
 C     2.06580  -3.15340   2.16650    88    87    89    96
 C     3.22170  -2.89250   1.43500    89    83    88    27
 C    -1.56460  -0.47930   3.71100    90    91    74    15
 C    -0.22940  -0.73290   3.81820    91    90    77    92
 C     0.21800  -2.05050   3.41110    92    96    91    93
 C    -0.73920  -2.92630   2.75680    93    94    13    92
 C    -0.22650  -3.79380   1.80610    94    87     9    93
 C     2.43420  -1.10980   3.31260    95    86    76    96
 C     1.60710  -2.21110   3.13520    96    95    92    88
