    96
C96-C1-135                                                                      
 C     0.06660   1.46900  -3.79380     1     2     6    59
 C    -1.05600   0.73100  -3.91810     2     1     3     9
 C    -2.19020   1.36450  -3.43860     3     4     2    58
 C    -3.27000   0.67350  -3.02020     4     5     3    32
 C    -3.22480  -0.66720  -3.01360     5     4    21    10
 C     1.29010   0.89300  -3.77960     6     1    70     7
 C     1.51930  -0.50110  -3.75190     7     6    16     8
 C     0.34290  -1.32650  -3.72160     8     7     9    12
 C    -0.93880  -0.68790  -3.88180     9    10     2     8
 C    -2.07590  -1.32780  -3.40380    10    14     5     9
 C     1.65980  -2.92780  -2.38920    11    15    18    12
 C     0.40340  -2.58940  -2.99940    12    11     8    13
 C    -0.82790  -3.14470  -2.43910    13    14    28    12
 C    -2.03060  -2.49920  -2.69480    14    10    13    22
 C     1.57210  -3.70460  -1.22400    15    27    90    11
 C     2.75830  -0.88970  -3.18020    16    18     7    17
 C     3.64540   0.13370  -2.73100    17    94    71    16
 C     2.83740  -2.12480  -2.49250    18    16    96    11
 C    -4.56370  -1.36620   0.16530    19    24    33    20
 C    -4.60930  -0.71580  -1.05870    20    19    21    31
 C    -3.88150  -1.36940  -2.05560    21     5    22    20
 C    -3.15280  -2.53140  -1.86230    22    23    21    14
 C    -3.12800  -3.17400  -0.64950    23    22    29    24
 C    -3.86140  -2.53740   0.35890    24    26    19    23
 C    -2.30430  -3.15890   1.97000    25    26    30    45
 C    -3.40600  -2.50910   1.65400    26    25    36    24
 C     0.39840  -4.12060  -0.67250    27    15    28    92
 C    -0.84470  -3.90720  -1.22980    28    27    13    29
 C    -1.96050  -3.87400  -0.32500    29    23    30    28
 C    -1.63170  -3.89090   1.04570    30    93    25    29
 C    -4.61900   0.70350  -1.04150    31    35    32    20
 C    -3.92510   1.36860  -2.04410    32     4    31    40
 C    -4.48330  -0.67260   1.35900    33    34    36    19
 C    -4.48890   0.66080   1.36060    34    33    49    35
 C    -4.56430   1.36380   0.17470    35    34    38    31
 C    -3.70270  -1.33960   2.27000    36    26    33    47
 C    -3.41970   2.50390   1.65320    37    41    38    49
 C    -3.85770   2.53900   0.36010    38    37    35    39
 C    -3.10420   3.17120  -0.63960    39    40    38    55
 C    -3.19870   2.54070  -1.85390    40    58    39    32
 C    -2.31800   3.15200   1.97220    41    37    43    54
 C    -0.31860   3.20380   2.69720    42    44    43    60
 C    -1.52060   2.65290   2.95480    43    42    41    52
 C     0.75590   2.62500   3.15730    44    42    69    53
 C    -1.42340  -2.64220   2.90640    45    80    25    46
 C    -1.59460  -1.40020   3.51870    46    45    50    47
 C    -2.82130  -0.71270   3.19340    47    48    36    46
 C    -2.85850   0.69800   3.20690    48    52    47    49
 C    -3.73050   1.32710   2.27740    49    34    37    48
 C    -0.37820  -0.72810   3.88810    50    51    46    83
 C    -0.49670   0.70110   3.94670    51    53    52    50
 C    -1.69440   1.39070   3.57950    52    48    43    51
 C     0.69650   1.39550   3.78160    53    88    44    51
 C    -1.56660   3.84100   1.03780    54    60    41    55
 C    -1.87580   3.83340  -0.31100    55    54    39    56
 C    -0.74170   3.87390  -1.20090    56    57    55    63
 C    -0.95180   3.21060  -2.44520    57    59    58    56
 C    -2.13960   2.55780  -2.71650    58    40    57     3
 C     0.12770   2.67900  -3.08860    59    68    57     1
 C    -0.28990   3.89530   1.50460    60    54    42    62
 C     2.06740   3.49420   1.29700    61    65    69    62
 C     0.85780   3.99150   0.71870    62    60    61    63
 C     0.64200   3.98010  -0.69670    63    62    67    56
 C     4.01640   2.08500   1.05310    64    74    79    65
 C     3.15270   3.07520   0.50250    65    61    66    64
 C     3.00190   3.08230  -0.90820    66    65    72    67
 C     1.74830   3.49310  -1.47450    67    68    66    63
 C     1.39970   2.84270  -2.66670    68    59    70    67
 C     1.93290   2.81680   2.53520    69    44    77    61
 C     2.12190   1.80950  -3.20080    70    71     6    68
 C     3.26750   1.45330  -2.69280    71    70    72    17
 C     3.76840   2.10440  -1.59720    72    75    71    66
 C     4.77640  -0.00800   0.99660    73    76    78    74
 C     4.72510   1.18880   0.31150    74    75    64    73
 C     4.60800   1.19470  -1.02780    75    74    72    94
 C     4.72940  -1.16010   0.30320    76    73    84    95
 C     2.68950   1.76400   2.92920    77    79    69    88
 C     4.09890   0.09940   2.17640    78    73    79    86
 C     3.73290   1.41380   2.22330    79    77    78    64
 C    -0.19780  -3.18580   2.62870    80    45    93    82
 C     2.14840  -2.97170   2.14820    81    85    91    82
 C     1.02410  -2.60290   2.96620    82    80    83    81
 C     0.95720  -1.33960   3.63920    83    82    87    50
 C     4.01620  -2.19510   0.82430    84    76    89    85
 C     3.28510  -2.14650   2.04640    85    81    86    84
 C     3.29920  -0.92410   2.75950    86    85    78    87
 C     2.13920  -0.53210   3.51430    87    88    83    86
 C     1.92450   0.83810   3.61030    88    53    77    87
 C     3.54230  -2.86650  -0.28460    89    90    96    84
 C     2.47440  -3.60370  -0.18550    90    89    91    15
 C     1.83980  -3.75300   1.00630    91    92    90    81
 C     0.61160  -4.17680   0.69070    92    93    91    27
 C    -0.38030  -3.98020   1.51330    93    92    30    80
 C     4.54530   0.00750  -1.71660    94    95    17    75
 C     4.60930  -1.16020  -1.06670    95    94    96    76
 C     3.79830  -2.18030  -1.44240    96    95    89    18
