    96
C96-C2-48                                                                       
 C     1.41400  -4.15250  -0.91900     1     2     6    62
 C     2.55860  -3.47440  -1.07170     2     1     3    10
 C     3.26680  -3.25500   0.10860     3     4     2    59
 C     4.18860  -2.30660   0.21300     4     3     5    28
 C     4.49230  -1.52800  -0.84320     5    16     4    11
 C     0.36700  -4.01240  -1.78940     6    64     1     8
 C    -0.95290  -2.47710  -3.06170     7     8    13    73
 C     0.33970  -2.97140  -2.75480     8     7     6     9
 C     1.49310  -2.14780  -2.90690     9     8    10    14
 C     2.65990  -2.50870  -2.12330    10    11     2     9
 C     3.65830  -1.57640  -1.95500    11    20    10     5
 C    -2.35340  -0.55290  -3.17670    12    37    79    13
 C    -1.09800  -1.12010  -3.46410    13    12     7    18
 C     1.34360  -0.75280  -3.36400    14    19    18     9
 C     4.06120   1.74170  -1.46330    15    17    21    24
 C     4.90640  -0.26530  -0.63160    16     5    17    26
 C     4.37330   0.46610  -1.65090    17    15    16    20
 C     0.01700  -0.21720  -3.60310    18    13    14    22
 C     2.40160   0.18290  -3.09530    19    20    14    23
 C     3.55310  -0.30220  -2.44590    20    11    17    19
 C     3.01790   2.31110  -2.11170    21    15    34    23
 C    -0.23030   1.22990  -3.49070    22    38    39    18
 C     2.13600   1.59290  -2.96090    23    39    21    19
 C     4.18300   2.30430  -0.21610    24    29    25    15
 C     4.48480   1.52580   0.83970    25    26    24    48
 C     4.89720   0.26110   0.64200    26    25    27    16
 C     4.36990  -0.47150   1.65600    27    28    26    49
 C     4.06200  -1.74730   1.46350    28    27    46     4
 C     3.26300   3.25990  -0.11120    29    24    30    34
 C     2.55990   3.47700   1.07160    30    31    29    47
 C     1.41680   4.15410   0.91480    31    30    50    32
 C     0.89260   4.50650  -0.33520    32    35    33    31
 C     1.40940   3.92960  -1.49650    33    34    32    42
 C     2.61220   3.37030  -1.34410    34    33    21    29
 C    -0.40650   4.74500  -0.16410    35    32    36    84
 C    -1.27440   4.43190  -1.14780    36    35    88    41
 C    -2.57390   0.76990  -3.03120    37    12    38    91
 C    -1.57060   1.68210  -3.21320    38    37    40    22
 C     0.83690   2.13760  -3.12740    39    23    22    42
 C    -1.83080   2.88790  -2.59230    40    41    38    96
 C    -0.81690   3.71610  -2.23130    41    40    36    42
 C     0.50880   3.38870  -2.45480    42    41    33    39
 C    -0.83150  -3.69920   2.18780    43    71    60    44
 C     0.49910  -3.37750   2.42350    44    43    58    57
 C     2.12550  -1.59270   2.94850    45    57    46    54
 C     3.01210  -2.31460   2.10580    46    28    59    45
 C     2.65740   2.51030   2.11890    47    48    30    52
 C     3.65200   1.57500   1.95240    48    49    47    25
 C     3.54520   0.29930   2.44450    49    48    27    54
 C     0.36550   4.01860   1.77640    50    31    84    51
 C     0.32990   2.97680   2.74160    51    67    50    52
 C     1.48570   2.15250   2.89700    52    51    47    53
 C     1.33240   0.75740   3.35250    53    54    55    52
 C     2.38800  -0.18190   3.08970    54    49    53    45
 C     0.00350   0.22410   3.58420    55    68    53    56
 C    -0.24480  -1.22170   3.46580    56    70    57    55
 C     0.82060  -2.12810   3.10560    57    45    56    44
 C     1.40490  -3.93070   1.47780    58    59    62    44
 C     2.60760  -3.37320   1.33640    59    58    46     3
 C    -1.29680  -4.43130   1.11460    60    61    63    43
 C    -0.41450  -4.74630   0.14580    61    62    60    64
 C     0.88280  -4.51050   0.32310    62    61    58     1
 C    -2.55030  -4.02970   0.79880    63    60    66    72
 C    -0.74000  -4.50230  -1.15510    64    65    61     6
 C    -1.94980  -4.05620  -1.46560    65    64    73    66
 C    -2.91590  -3.86900  -0.49900    66    75    63    65
 C    -0.96130   2.48120   3.04320    67    51    68    86
 C    -1.11310   1.12560   3.44160    68    80    67    55
 C    -2.58390  -0.75300   2.99700    69    80    70    81
 C    -1.58230  -1.66950   3.17970    70    69    71    56
 C    -1.84800  -2.86990   2.55350    71    43    70    72
 C    -2.93880  -3.08020   1.69070    72    63    82    71
 C    -2.06460  -3.08870  -2.40980    73    65    76     7
 C    -4.25630  -1.89270   0.02140    74    75    82    77
 C    -3.69990  -2.82560  -0.86920    75    66    76    74
 C    -3.20430  -2.41890  -2.08300    76    79    73    75
 C    -4.52420  -0.56130  -0.43780    77    78    93    74
 C    -4.06160  -0.27620  -1.73810    78    91    79    77
 C    -3.34980  -1.18050  -2.46570    79    76    78    12
 C    -2.36820   0.56830   3.14940    80    69    87    68
 C    -3.67280  -0.93950   2.11920    81    82    92    69
 C    -3.81710  -2.06080   1.36890    82    81    72    74
 C    -1.94890   4.05920   1.43950    83    84    86    90
 C    -0.73850   4.50570   1.13550    84    83    35    50
 C    -3.21050   2.42890   2.04000    85    87    86    89
 C    -2.06910   3.09160   2.38210    86    83    85    67
 C    -3.36050   1.19080   2.43360    87    85    92    80
 C    -2.53200   4.03200  -0.82770    88    36    90    96
 C    -3.71150   2.83730   0.82600    89    90    85    94
 C    -2.90990   3.87350   0.46860    90    89    88    83
 C    -3.66210   0.95380  -2.15340    91    78    95    37
 C    -4.07860   0.29190   1.70560    92    81    87    93
 C    -4.53200   0.57810   0.40520    93    92    77    94
 C    -4.26240   1.90210  -0.06730    94    89    95    93
 C    -3.81080   2.07980  -1.40690    95    91    96    94
 C    -2.92560   3.09150  -1.72850    96    88    95    40
