    96
C96-C1-7                                                                        
 C    -3.67730  -2.90390   0.74780     1     6    58     2
 C    -4.40080  -2.21110  -0.22590     2     3     1     9
 C    -4.97540  -1.01070   0.18080     3     4     2    57
 C    -5.11010   0.05810  -0.66250     4    17     3     5
 C    -4.55830  -0.01470  -1.92040     5    10    18     4
 C    -2.60350  -3.68750   0.44810     6     7     1    12
 C    -2.15670  -3.77260  -0.80790     7     6    13     8
 C    -2.74320  -3.02870  -1.77490     8     7     9    27
 C    -3.86450  -2.26830  -1.54820     9     8    10     2
 C    -3.90830  -1.13450  -2.33030    10     5     9    19
 C    -0.32790  -3.88350   1.27700    11    12    64    14
 C    -1.67670  -3.66550   1.45690    12    62     6    11
 C    -0.83870  -3.94440  -1.05040    13     7    14    87
 C     0.11890  -4.12270  -0.07180    14    93    13    11
 C    -4.38730   2.28720  -0.51660    15    17    21    16
 C    -3.86150   2.20140  -1.79560    16    18    35    15
 C    -4.97440   1.21440   0.05470    17    15     4    44
 C    -3.90400   1.04750  -2.46300    18    16     5    29
 C    -2.82080  -0.72780  -3.12660    19    29    28    10
 C    -1.48740   4.01140  -0.29550    20    22    25    40
 C    -3.55140   3.09250   0.19820    21    15    22    42
 C    -2.64750   3.58300  -0.69780    22    20    21    35
 C     2.05190   3.03870  -1.90510    23    26    52    38
 C    -0.36480   3.19210  -2.28950    24    34    25    38
 C    -0.38880   3.93680  -1.09160    25    53    20    24
 C     3.21890   2.31170  -1.99600    26    39    23    85
 C    -1.70060  -2.65740  -2.62090    27    87    28     8
 C    -1.65910  -1.44510  -3.28370    28    19    27    31
 C    -2.79740   0.63630  -3.17610    29    19    18    33
 C     0.80130  -1.56290  -3.26740    30    90    31    88
 C    -0.40250  -0.81170  -3.54420    31    28    30    32
 C    -0.36190   0.65580  -3.55800    32    37    33    31
 C    -1.59880   1.36150  -3.31930    33    29    34    32
 C    -1.59750   2.63340  -2.67200    34    24    35    33
 C    -2.74890   2.96130  -1.90990    35    16    22    34
 C     2.09520   0.54120  -3.24230    36    39    37    90
 C     0.89460   1.32100  -3.31050    37    36    32    38
 C     0.88660   2.62660  -2.65030    38    24    23    37
 C     3.25130   1.10970  -2.66630    39    26    83    36
 C    -1.11490   3.92780   1.01410    40    46    20    41
 C    -1.88140   3.25240   1.94740    41    40    42    50
 C    -3.19230   2.83950   1.54600    42    43    21    41
 C    -3.78050   1.68470   2.09910    43    45    44    42
 C    -4.67980   0.89770   1.35470    44    17    57    43
 C    -2.96850   0.97670   2.97320    45    55    51    43
 C     0.22700   3.99100   1.02840    46    40    48    53
 C     2.29720   3.23070   1.63660    47    48    73    54
 C     0.99900   3.39400   1.99060    48    47    46    49
 C     0.36180   2.51930   2.90450    49    48    50    72
 C    -1.07790   2.50020   2.87110    50    51    41    49
 C    -1.68440   1.35730   3.32700    51    50    66    45
 C     1.91210   3.74630  -0.67330    52    53    54    23
 C     0.68060   4.08330  -0.29160    53    52    25    46
 C     2.79740   3.49470   0.35600    54    86    52    47
 C    -3.03140  -0.39220   3.09630    55    45    56    59
 C    -3.90730  -1.14930   2.34470    56    58    57    55
 C    -4.72220  -0.48730   1.45800    57    56    44     3
 C    -3.41360  -2.37870   1.99860    58    56     1    62
 C    -1.78310  -0.83560   3.49910    59    66    61    55
 C     0.11150  -2.24920   3.10800    60    61    64    70
 C    -1.28660  -2.07560   3.17950    61    59    62    60
 C    -2.16400  -2.82530   2.41270    62    12    61    58
 C     1.87320  -3.23270   1.80590    63    64    71    92
 C     0.56920  -3.25930   2.18480    64    63    11    60
 C     0.44080   0.15560   3.65600    65    66    72    70
 C    -0.94580   0.23840   3.67210    66    59    51    65
 C     4.32330  -0.13170   2.00960    67    76    81    68
 C     3.17580  -0.02660   2.86130    68    74    69    67
 C     2.38410  -1.20520   3.03910    69    71    70    68
 C     1.02250  -1.14870   3.43670    70    69    65    60
 C     2.78690  -2.31990   2.28390    71    77    63    69
 C     1.15530   1.36200   3.34340    72    74    65    49
 C     3.09120   2.25180   2.16320    73    47    79    74
 C     2.53220   1.24510   2.97000    74    73    68    72
 C     5.19400  -0.92390   0.07810    75    80    78    76
 C     4.65330  -1.26180   1.30750    76    77    67    75
 C     3.85510  -2.32480   1.43220    77    76    91    71
 C     4.73180  -1.61440  -1.01920    78    94    82    75
 C     4.15470   2.07010   1.31740    79    81    73    86
 C     5.28150   0.43080   0.03210    80    75    84    81
 C     4.79960   0.90320   1.23860    81    79    67    80
 C     4.24530  -0.92530  -2.09950    82    83    78    89
 C     4.31500   0.41060  -2.13160    83    82    84    39
 C     4.89260   1.11400  -1.10500    84    85    83    80
 C     4.21610   2.27800  -1.02560    85    84    86    26
 C     3.92450   2.80620   0.18360    86    54    85    79
 C    -0.54980  -3.26840  -2.22220    87    27    88    13
 C     0.70020  -2.83180  -2.55280    88    87    96    30
 C     3.13100  -1.55890  -2.60150    89    82    95    90
 C     2.04590  -0.89370  -3.21310    90    89    30    36
 C     3.54050  -3.09560   0.35480    91    92    94    77
 C     2.32810  -3.64780   0.55680    92    91    93    63
 C     1.42640  -3.91060  -0.45980    93    14    92    96
 C     3.92330  -2.69110  -0.87840    94    91    78    95
 C     2.96870  -2.71690  -1.86480    95    96    94    89
 C     1.74910  -3.32070  -1.74030    96    95    88    93
