    96
C96-C1-130                                                                      
 C    -2.79130  -1.70370  -2.93390     1     2     6    59
 C    -2.37970  -2.84360  -2.30060     2     1     3    10
 C    -3.05270  -3.07690  -1.09880     3     4    56     2
 C    -2.43180  -3.69430  -0.06740     4     5     3    14
 C    -1.18920  -4.13930  -0.19860     5     4    15    11
 C    -1.91470  -0.96900  -3.68920     6     1     8    61
 C     0.24870  -0.27220  -4.06700     7    25     8    60
 C    -0.59040  -1.34330  -3.85120     8     7     6     9
 C    -0.06610  -2.50940  -3.23570     9     8    10    27
 C    -1.02150  -3.26160  -2.45300    10    11     2     9
 C    -0.49720  -3.96420  -1.37420    11    29     5    10
 C    -2.22870  -2.05350   3.00780    12    13    20    32
 C    -1.98320  -3.12430   2.19890    13    12    14    16
 C    -2.86530  -3.20740   1.11950    14     4    31    13
 C    -0.32300  -4.14170   0.85920    15    22     5    16
 C    -0.64660  -3.57810   2.10120    16    15    13    18
 C     1.75460  -3.09000   2.30010    17    21    18    24
 C     0.43160  -2.95000   2.81720    18    17    16    19
 C     0.12090  -1.77320   3.60680    19    20    41    18
 C    -1.20700  -1.39580   3.66980    20    39    19    12
 C     2.68820  -2.12350   2.66630    21    91    40    17
 C     0.92380  -4.13560   0.32480    22    24    15    29
 C     3.05560  -3.28500   0.23710    23    90    24    30
 C     1.99840  -3.70170   1.02780    24    22    23    17
 C     1.58740  -0.31580  -3.78300    25     7    78    26
 C     2.22170  -1.42130  -3.22470    26    25    94    27
 C     1.35990  -2.55170  -2.91770    27    28    26     9
 C     1.77410  -3.36530  -1.82430    28    29    30    27
 C     0.81970  -4.00100  -1.06720    29    11    28    22
 C     2.93520  -3.07620  -1.14550    30    95    28    23
 C    -3.85890  -2.28680   0.82900    31    33    56    14
 C    -3.26350  -1.15930   2.76540    32    34    12    33
 C    -4.11200  -1.20830   1.64550    33    31    32    47
 C    -2.87850   0.01100   3.33190    34    35    32    39
 C    -3.32780   1.16300   2.83430    35    34    37    46
 C    -0.34680   3.05010   2.82770    36    38    45    54
 C    -2.50840   2.24820   2.86600    37    35    52    38
 C    -1.23120   2.18600   3.40700    38    36    37    43
 C    -1.60810  -0.09580   3.85860    39    20    34    43
 C     2.35270  -0.96540   3.35430    40    41    21    84
 C     1.07690  -0.71450   3.80620    41    40    19    42
 C     0.68410   0.67760   3.90320    42    43    41    44
 C    -0.71320   0.97100   3.92620    43    39    38    42
 C     1.59540   1.68710   3.39320    44    45    85    42
 C     1.00170   2.82930   2.84460    45    36    80    44
 C    -4.14750   1.16950   1.73270    46    49    35    47
 C    -4.55510   0.00550   1.05680    47    46    33    48
 C    -4.67640   0.08950  -0.36830    48    51    55    47
 C    -3.82320   2.34130   1.10150    49    50    52    46
 C    -3.90870   2.41520  -0.22700    50    49    51    70
 C    -4.34330   1.33890  -0.94680    51    50    57    48
 C    -2.82430   3.00550   1.75040    52    49    37    53
 C    -1.87650   3.76350   1.07950    53    54    52    69
 C    -0.65970   3.81330   1.70300    54    71    53    36
 C    -4.37390  -1.04160  -1.17110    55    56    59    48
 C    -3.98900  -2.20610  -0.54670    56    55    31     3
 C    -3.72790   1.47530  -2.16010    57    58    51    63
 C    -3.45250   0.38720  -2.88500    58    57    61    59
 C    -3.76050  -0.84950  -2.41000    59    58     1    55
 C    -0.17710   1.05460  -3.98750    60    68    62     7
 C    -2.33530   0.35300  -3.64840    61    58    62     6
 C    -1.46220   1.42510  -3.71170    62    60    61    65
 C    -2.85810   2.55130  -2.15870    63    70    57    65
 C    -0.58240   3.34380  -2.40220    64    67    65    73
 C    -1.68680   2.58520  -2.91210    65    63    62    64
 C     1.83470   3.24210  -2.10540    66    74    67    76
 C     0.71720   2.95780  -2.85530    67    66    68    64
 C     0.88370   1.80780  -3.62570    68    60    78    67
 C    -1.91320   3.83740  -0.34560    69    70    53    73
 C    -2.97000   3.15240  -0.93680    70    63    50    69
 C     0.49280   4.04780   1.03990    71    54    72    80
 C     0.51480   4.16830  -0.34960    72    74    71    73
 C    -0.69180   3.98130  -1.08970    73    72    69    64
 C     1.73800   3.83190  -0.87190    74    66    72    82
 C     3.59770   2.64080  -0.92450    75    79    76    82
 C     2.99170   2.47250  -2.12810    76    75    66    77
 C     3.10750   1.27610  -2.83180    77    78    76    93
 C     2.00430   0.98550  -3.56990    78    77    25    68
 C     4.38200   1.69640  -0.40650    79    75    87    96
 C     1.54990   3.52260   1.78330    80    81    45    71
 C     2.75810   3.18850   1.25440    81    80    82    88
 C     2.82560   3.41800  -0.11810    82    75    74    81
 C     4.14440  -0.54880   2.09960    83    86    91    84
 C     3.24480   0.02720   2.96040    84    83    40    85
 C     2.88670   1.37260   2.88860    85    84    44    88
 C     4.69400   0.15680   1.08650    86    83    87    92
 C     4.37650   1.46710   0.95710    87    86    79    88
 C     3.50080   2.13900   1.82690    88    87    81    85
 C     4.44620  -1.68450  -0.34430    89    92    90    95
 C     3.97490  -2.41860   0.69910    90    23    91    89
 C     3.79810  -1.84740   1.91320    91    90    83    21
 C     4.83180  -0.40970  -0.15990    92    89    96    86
 C     3.88690   0.22680  -2.30470    93    77    96    94
 C     3.43050  -1.13400  -2.49930    94    95    26    93
 C     3.76550  -2.03610  -1.48750    95    30    89    94
 C     4.57880   0.52070  -1.10980    96    92    79    93
