    96
C96-C1-102                                                                      
 C     4.42040  -1.85330   0.18340     1     5    16    54
 C     1.15700  -4.21650   0.54610     2     3    62     7
 C     2.41280  -3.70320   0.57830     3     2     4    56
 C     2.92510  -3.41740  -0.68850     4     5     3     9
 C     3.89670  -2.51470  -0.86940     5     4     1    17
 C    -0.87310  -4.38150  -0.26330     6    10     7    13
 C     0.42040  -4.35440  -0.62220     7     6     2     8
 C     0.83890  -3.80730  -1.83480     8     9     7    27
 C     2.11350  -3.38080  -1.82840     9     8    18     4
 C    -1.80060  -3.94160  -1.10740    10     6    95    26
 C    -1.84980  -2.78010   2.67000    11    78    12    60
 C    -2.14890  -3.58190   1.58800    12    11    13    94
 C    -1.01440  -4.19190   1.07950    13     6    62    12
 C     4.66000   0.04850  -1.17200    14    33    15    16
 C     4.02840  -0.60480  -2.18580    15    17    14    23
 C     4.83380  -0.56730   0.03910    16     1    41    14
 C     3.66600  -1.87470  -2.05460    17    15    18     5
 C     2.51860  -2.33110  -2.61840    18    17     9    21
 C    -1.38140   1.38120  -3.48480    19    38    92    24
 C     0.97440   0.88230  -3.59110    20    22    24    35
 C     1.61160  -1.51780  -3.34170    21    18    28    22
 C     1.98020  -0.12400  -3.44480    22    23    20    21
 C     3.20460   0.26270  -2.85410    23    15    34    22
 C    -0.38610   0.43440  -3.75140    24    19    20    29
 C    -2.15480  -1.24200  -3.26120    25    30    91    29
 C    -1.42050  -3.31160  -2.28350    26    30    27    10
 C    -0.10110  -3.15150  -2.67050    27    26     8    28
 C     0.24900  -1.93940  -3.39070    28    21    29    27
 C    -0.78080  -0.95760  -3.64830    29    28    24    25
 C    -2.40390  -2.43030  -2.57810    30    26    88    25
 C     3.32270   3.16120  -0.19260    31    42    32    37
 C     4.21150   2.11970  -0.08130    32    31    33    40
 C     4.31150   1.35260  -1.23000    33    14    32    34
 C     3.43100   1.50550  -2.31140    34    36    23    33
 C     1.25460   2.23560  -3.06070    35    36    39    20
 C     2.48550   2.48510  -2.38160    36    34    37    35
 C     2.52040   3.37850  -1.31120    37    49    31    36
 C    -1.11320   2.63880  -2.98580    38    19    84    39
 C     0.16160   3.08680  -2.70460    39    38    35    48
 C     4.31430   1.46310   1.17840    40    41    44    32
 C     4.58210   0.11140   1.18930    41    16    40    53
 C     2.60540   3.62220   0.87260    42    43    45    31
 C     2.64450   2.95160   2.03600    43    42    44    70
 C     3.45390   1.87570   2.17920    44    43    40    51
 C     1.44990   4.18260   0.46400    45    42    46    49
 C     0.30040   4.16870   1.24580    46    47    45    69
 C    -0.85240   4.29690   0.53130    47    46    71    50
 C     0.24960   4.00620  -1.61050    48    49    50    39
 C     1.41370   4.06510  -0.92140    49    48    37    45
 C    -0.88690   4.26600  -0.85950    50    85    48    47
 C     2.79700   0.99720   3.02920    51    52    63    44
 C     2.98140  -0.37310   2.97090    52    51    53    58
 C     3.93650  -0.78360   2.05160    53    54    52    41
 C     3.84200  -2.00420   1.43020    54    53     1    56
 C     1.83510  -2.54330   2.69820    55    61    56    58
 C     2.80970  -2.89620   1.69480    56    54     3    55
 C     0.67320  -0.57980   3.77050    57    59    65    58
 C     1.89770  -1.21980   3.32290    58    52    57    55
 C    -0.49270  -1.31390   3.67370    59    60    68    57
 C    -0.55030  -2.57460   3.13740    60    59    61    11
 C     0.57220  -3.18550   2.62230    61    60    62    55
 C     0.26930  -4.03850   1.57490    62     2    61    13
 C     1.59030   1.57630   3.38660    63    65    70    51
 C    -0.80980   1.47430   3.56930    64    67    65    73
 C     0.48300   0.85150   3.76150    65    63    57    64
 C    -3.08540   0.98050   2.83190    66    74    67    76
 C    -1.93400   0.61230   3.50760    67    68    66    64
 C    -1.74560  -0.75400   3.56730    68    59    67    78
 C     0.28130   3.40040   2.44870    69    70    73    46
 C     1.49310   2.80630   2.76920    70    43    63    69
 C    -2.04620   3.81620   0.99580    71    47    80    72
 C    -2.11580   3.06000   2.16700    72    74    71    73
 C    -0.91790   2.76500   2.88730    73    69    72    64
 C    -3.17220   2.17130   2.16030    74    66    72    82
 C    -4.50120   0.70750   1.16390    75    79    82    76
 C    -3.93380   0.05670   2.22110    76    75    77    66
 C    -3.69720  -1.31090   2.21030    77    78    76    93
 C    -2.59270  -1.67180   2.95200    78    11    77    68
 C    -4.78940   0.02230   0.03490    79    75    96    86
 C    -2.87600   3.58460  -0.10110    80    85    81    71
 C    -3.88100   2.64680  -0.10900    81    80    82    87
 C    -4.05230   1.99370   1.09620    82    75    81    74
 C    -3.19530   2.10320  -2.33970    83    84    92    87
 C    -2.23240   3.04850  -2.29100    84    85    83    38
 C    -2.10520   3.82650  -1.20660    85    84    50    80
 C    -4.54160   0.60230  -1.19090    86    87    79    90
 C    -4.09500   1.89770  -1.29550    87    86    83    81
 C    -3.38280  -2.56920  -1.60530    88    89    95    30
 C    -4.19110  -1.56320  -1.31050    89    88    90    96
 C    -4.10020  -0.40630  -2.02560    90    89    86    91
 C    -3.09300  -0.21620  -2.98790    91    92    90    25
 C    -2.68090   1.07180  -3.11680    92    91    19    83
 C    -4.02470  -2.07500   1.05730    93    96    77    94
 C    -3.21630  -3.20340   0.73600    94    95    12    93
 C    -2.96560  -3.42540  -0.63420    95    10    88    94
 C    -4.55850  -1.32600  -0.00810    96    79    89    93
