    96
C96-C1-86                                                                       
 C    -3.90810  -2.03150   0.99600     1     2     8    62
 C    -4.15430  -0.79580   1.48720     2     1     3     7
 C    -4.61250   0.10930   0.51810     3     4    59     2
 C    -4.48450   1.43830   0.68600     4     3     5    12
 C    -3.87770   1.91840   1.78810     5     4    13     6
 C    -3.31110   1.05220   2.69300     6    23     5     7
 C    -3.38470  -0.33410   2.60590     7     6     2    19
 C    -2.99840  -2.86960   1.60060     8    64     1     9
 C    -2.13020  -2.45370   2.64380     9     8    18    19
 C    -3.48850   3.11910  -0.59520    10    12    27    11
 C    -2.92660   3.66300   0.51840    11    13    10    35
 C    -4.26400   2.01690  -0.53330    12    10     4    41
 C    -3.11520   3.04140   1.70310    13    14    11     5
 C    -2.08580   2.92820   2.55980    14    13    15    23
 C    -0.86260   3.52690   2.30340    15    16    14    34
 C     0.16730   2.89910   2.93320    16    36    15    24
 C    -0.60290  -4.07550   1.68560    17    65    91    18
 C    -0.86050  -3.10260   2.69290    18    94    17     9
 C    -2.28960  -1.12710   3.14590    19     9     7    21
 C     0.18810  -1.09580   3.71980    20    94    21    95
 C    -1.11820  -0.44500   3.69810    21    22    20    19
 C    -1.14100   0.98400   3.68860    22    23    24    21
 C    -2.21110   1.68860   3.20160    23     6    22    14
 C     0.04450   1.68340   3.61240    24    96    22    16
 C    -1.30570   2.21310  -3.19030    25    26    42    31
 C    -2.53490   2.28000  -2.61580    26    25    27    40
 C    -2.62560   3.25740  -1.62530    27    10    26    28
 C    -1.52220   3.97220  -1.15470    28    30    35    27
 C     0.90080   4.05500  -0.93450    29    30    33    38
 C    -0.27840   3.87660  -1.71790    30    28    31    29
 C    -0.23540   3.01780  -2.81150    31    55    30    25
 C     3.15170   3.20640  -0.56460    32    57    39    33
 C     2.12110   3.50450  -1.45730    33    32    54    29
 C    -0.60000   4.18260   1.05580    34    35    38    15
 C    -1.69500   4.17660   0.19480    35    11    28    34
 C     1.44640   3.02440   2.51070    36    16    85    37
 C     1.78260   3.68850   1.32950    37    39    36    38
 C     0.72630   4.18160   0.51330    38    37    34    29
 C     2.97050   3.25860   0.80090    39    37    32    90
 C    -3.30880   1.08840  -2.55760    40    41    26    44
 C    -4.20040   1.02520  -1.47590    41    12    59    40
 C    -0.79820   1.04960  -3.71120    42    47    25    43
 C    -1.45280  -0.16530  -3.65310    43    42    51    44
 C    -2.77880  -0.15720  -3.06370    44    45    40    43
 C    -3.24930  -1.37180  -2.47790    45    46    44    58
 C    -2.41300  -2.48350  -2.57260    46    60    52    45
 C     0.56170   1.17380  -3.74200    47    42    49    55
 C     2.66660   0.38710  -3.26250    48    49    70    53
 C     1.41080   0.08550  -3.71600    49    48    47    50
 C     0.87140  -1.21610  -3.59780    50    49    51    69
 C    -0.57550  -1.31200  -3.62500    51    52    43    50
 C    -1.12210  -2.44830  -3.09760    52    51    67    46
 C     3.02160   1.65300  -2.77150    53    56    54    48
 C     2.09970   2.67600  -2.62630    54    55    53    33
 C     0.90260   2.41380  -3.20530    55    31    54    47
 C     4.03360   1.47070  -1.90430    56    53    57    78
 C     4.11040   2.24900  -0.79840    57    56    82    32
 C    -4.11290  -1.35370  -1.33490    58    59    62    45
 C    -4.51950  -0.15480  -0.85600    59    58    41     3
 C    -2.42490  -3.51100  -1.67280    60    63    61    46
 C    -3.17580  -3.40730  -0.54720    61    62    60    64
 C    -3.96160  -2.34340  -0.37240    62    61    58     1
 C    -1.19870  -4.07540  -1.63540    63    66    60    67
 C    -2.64070  -3.78330   0.64280    64    65    61     8
 C    -1.45090  -4.36390   0.67150    65    64    17    66
 C    -0.72500  -4.56230  -0.47690    66    75    63    65
 C    -0.35250  -3.43170  -2.49320    67    63    52    68
 C     1.03200  -3.33200  -2.29720    68    67    69    74
 C     1.69750  -2.22750  -2.90540    69    68    71    50
 C     3.44780  -0.55780  -2.64170    70    48    78    71
 C     2.98620  -1.85660  -2.38030    71    70    69    72
 C     3.49800  -2.45250  -1.17220    72    73    80    71
 C     2.72060  -3.42420  -0.51280    73    74    72    76
 C     1.54280  -3.93250  -1.09020    74    73    75    68
 C     0.58360  -4.47650  -0.20670    75    66    91    74
 C     2.73470  -3.37570   0.91000    76    81    92    73
 C     4.73790  -0.39150  -0.68190    77    78    80    84
 C     4.32070   0.14000  -1.83920    78    77    56    70
 C     4.23190  -1.62180   1.01410    79    81    83    80
 C     4.33150  -1.64310  -0.35930    80    77    79    72
 C     3.39870  -2.43580   1.61870    81    79    76    86
 C     4.49200   1.69790   0.38470    82    84    90    57
 C     4.42120  -0.36520   1.51770    83    84    79    88
 C     4.81660   0.38670   0.45130    84    82    83    77
 C     2.16070   1.94060   3.01440    85    89    96    36
 C     2.64330  -2.03310   2.70270    86    93    87    81
 C     2.66490  -0.73850   3.17640    87    86    95    88
 C     3.63120   0.14670   2.57240    88    89    83    87
 C     3.34090   1.52290   2.47500    89    85    90    88
 C     3.77090   2.27090   1.37980    90    82    89    39
 C     0.64130  -4.28470   1.15690    91    92    17    75
 C     1.67220  -3.69950   1.68370    92    91    76    93
 C     1.53210  -2.82240   2.73640    93    86    92    94
 C     0.27600  -2.43060   3.22520    94    93    18    20
 C     1.41270  -0.28420   3.69940    95    96    87    20
 C     1.26040   1.08820   3.63110    96    24    95    85
