    96
C96-C1-141                                                                      
 C    -0.44790   4.22300   0.40860     1     2     6    57
 C    -1.55080   3.87740   1.11410     2     1     3     9
 C    -2.65410   3.60280   0.32370     3     4     2    56
 C    -3.65800   2.82750   0.77300     4     3     5    18
 C    -3.54490   2.20310   1.97160     5    19     4    10
 C     0.79760   4.10160   0.93050     6     1    74     7
 C     1.07470   3.45840   2.15000     7     6    14     8
 C    -0.05850   2.90410   2.84070     8     9     7    12
 C    -1.36800   3.19800   2.35900     9    10     8     2
 C    -2.39760   2.33550   2.70730    10     5     9    25
 C     1.41050   1.14420   3.58280    11    13    12    26
 C     0.12750   1.65910   3.56680    12    11    24     8
 C     2.49910   1.73930   2.97780    13    14    11    96
 C     2.36270   2.88940   2.23230    14    13    15     7
 C     3.25680   2.97720   1.15670    15    73    93    14
 C    -4.75400   0.96310  -0.10440    16    18    32    17
 C    -4.68600   0.35200   1.12700    17    19    21    16
 C    -4.21780   2.18140  -0.28840    18    16     4    41
 C    -4.04040   0.95790   2.14340    19    17     5    20
 C    -3.20240   0.25790   2.96510    20    19    23    25
 C    -4.53060  -0.98000   0.94250    21    17    33    22
 C    -3.74040  -1.77750   1.79970    22    36    21    23
 C    -3.01050  -1.11350   2.86170    23    20    29    22
 C    -0.93170   0.71090   3.74750    24    25    12    28
 C    -2.18580   1.12300   3.35150    25    24    10    20
 C     1.68040  -0.21330   3.67060    26    11    87    27
 C     0.67770  -1.17740   3.73000    27    26    91    28
 C    -0.69170  -0.71960   3.78870    28    27    24    29
 C    -1.75170  -1.59730   3.31660    29    30    23    28
 C    -1.34010  -2.80460   2.76680    30    92    29    35
 C    -3.94220  -2.20950  -0.96110    31    33    34    37
 C    -4.62140   0.03550  -1.08700    32    16    33    39
 C    -4.58340  -1.17470  -0.42670    33    31    32    21
 C    -3.29160  -3.10840  -0.17770    34    31    49    36
 C    -2.01680  -3.42450   1.72000    35    36    50    30
 C    -3.16820  -2.91540   1.20390    36    35    34    22
 C    -3.30780  -2.08540  -2.15890    37    31    43    38
 C    -3.25330  -0.86010  -2.81810    38    42    37    39
 C    -3.89530   0.27550  -2.27850    39    38    32    40
 C    -3.28130   1.57340  -2.44360    40    41    53    39
 C    -3.50360   2.49300  -1.41660    41    18    56    40
 C    -2.10170  -0.68180  -3.52590    42    38    52    48
 C    -2.26650  -3.00360  -2.15700    43    49    47    37
 C     1.23830  -4.12850  -0.42250    44    64    86    45
 C     0.07840  -4.09720  -1.17980    45    44    51    46
 C     0.14060  -3.37180  -2.41960    46    47    45    66
 C    -1.09490  -2.82020  -2.87310    47    48    43    46
 C    -1.08550  -1.63380  -3.58380    48    68    47    42
 C    -2.27780  -3.65850  -0.95130    49    51    43    34
 C    -1.08160  -4.10190   0.95950    50    84    35    51
 C    -1.13280  -4.18110  -0.43400    51    49    50    45
 C    -1.53520   0.55920  -3.71300    52    58    42    53
 C    -2.04210   1.72840  -3.15780    53    52    40    54
 C    -1.05940   2.75010  -2.84140    54    55    53    61
 C    -1.38800   3.59550  -1.74420    55    56    57    54
 C    -2.56620   3.43120  -1.06490    56    55    41     3
 C    -0.35970   4.10990  -0.98730    57    63    55     1
 C    -0.20570   0.35840  -3.96850    58    52    60    68
 C     2.01720   0.81280  -3.56360    59    70    60    69
 C     0.74170   1.32400  -3.74490    60    58    59    61
 C     0.35580   2.55600  -3.15110    61    60    62    54
 C     1.38700   3.21530  -2.38750    62    63    71    61
 C     0.94740   3.96390  -1.29860    63    57    74    62
 C     2.42410  -3.57130  -0.80620    64    44    79    65
 C     2.57970  -2.85460  -1.99280    65    64    82    66
 C     1.39250  -2.72380  -2.80040    66    67    65    46
 C     1.30580  -1.51890  -3.56610    67    68    69    66
 C     0.07150  -1.00640  -3.88950    68    48    67    58
 C     2.29140  -0.55700  -3.47830    69    83    67    59
 C     2.98070   1.47280  -2.86230    70    59    71    75
 C     2.70310   2.67440  -2.25110    71    70    72    62
 C     3.42200   2.87190  -1.06360    72    73    78    71
 C     2.86550   3.53630  -0.01930    73    74    72    15
 C     1.66460   4.07050  -0.13200    74    73     6    63
 C     3.86800   0.53630  -2.34990    75    77    83    70
 C     4.74540  -0.36430  -0.38080    76    77    81    94
 C     4.54220   0.74880  -1.16670    77    78    76    75
 C     4.28840   1.93630  -0.52590    78    77    72    93
 C     3.12250  -3.26640   0.34920    79    80    85    64
 C     4.03230  -2.30030   0.35200    80    79    81    88
 C     4.31620  -1.61660  -0.78720    81    80    76    82
 C     3.59670  -1.85210  -1.96870    82    83    81    65
 C     3.41600  -0.71930  -2.72640    83    69    82    75
 C     0.08670  -4.00610   1.61590    84    86    50    92
 C     2.33910  -3.49560   1.44190    85    86    79    90
 C     1.23430  -4.09700   0.96060    86    84    85    44
 C     2.93870  -0.42950   3.12870    87    96    89    26
 C     4.16360  -1.50370   1.46010    88    80    94    89
 C     3.28360  -1.63370   2.54750    89    87    90    88
 C     2.32010  -2.64990   2.56910    90    89    85    91
 C     1.04000  -2.44390   3.18450    91    92    27    90
 C    -0.02520  -3.18950   2.71220    92    30    84    91
 C     4.18730   2.00210   0.86090    93    95    15    78
 C     4.64860  -0.29400   1.00830    94    95    88    76
 C     4.32750   0.88270   1.64320    95    93    94    96
 C     3.45280   0.77860   2.70600    96    87    95    13
