    96
C96-C1-120                                                                      
 C    -2.38830  -1.07250  -3.29140     1     7     2    60
 C    -1.11800  -0.76480  -3.70310     2     1     3    12
 C    -0.24110  -1.81200  -3.52050     3     4     2    57
 C     1.08670  -1.62370  -3.47650     4     3     5    18
 C     1.64850  -0.36690  -3.60520     5     6     4    13
 C     2.92210  -0.31170  -3.09690     6    32     5    19
 C    -3.26590  -0.10500  -2.88900     7     1    62    10
 C     1.34720   2.02910  -3.13730     8    30    13    31
 C    -1.00010   2.81960  -2.75320     9    14    11    30
 C    -2.89650   1.23370  -2.81610    10     7    16    11
 C    -1.56100   1.61140  -3.26400    11     9    12    10
 C    -0.63910   0.59040  -3.72560    12     2    11    13
 C     0.79760   0.79520  -3.66930    13     5     8    12
 C    -1.78910   3.52230  -1.80320    14    91    15     9
 C    -2.97720   3.05790  -1.28950    15    16    14    96
 C    -3.57230   1.95320  -1.78200    16    15    17    10
 C    -4.38100   1.27900  -0.85860    17    63    16    94
 C     1.64770  -2.67140  -2.74360    18    20    42     4
 C     3.53410  -1.38340  -2.42270    19    21    20     6
 C     2.86340  -2.56900  -2.14660    20    18    19    35
 C     4.43530  -0.84280  -1.56910    21    19    23    22
 C     4.61690  -1.43210  -0.36250    22    21    34    24
 C     4.39310   0.50570  -1.69270    23    26    21    32
 C     4.70270  -0.64440   0.75880    24    25    40    22
 C     4.66380   0.68660   0.63550    25    24    26    75
 C     4.55700   1.27350  -0.59320    26    27    23    25
 C     3.88390   2.41910  -0.47160    27    26    29    88
 C     2.09910   3.74770  -1.03900    28    29    33    86
 C     3.02040   2.87290  -1.47760    29    28    27    31
 C     0.42620   3.02360  -2.68430    30    33     8     9
 C     2.69370   2.02390  -2.57900    31    32    29     8
 C     3.44430   0.85730  -2.62360    32     6    23    31
 C     0.88550   3.89700  -1.66850    33    92    28    30
 C     3.93500  -2.56860  -0.04080    34    22    37    35
 C     3.03200  -3.22550  -0.90550    35    34    20    36
 C     1.91790  -3.92920  -0.33430    36    39    41    35
 C     3.69440  -2.47610   1.30470    37    38    34    40
 C     2.66470  -3.10520   1.81330    38    37    53    39
 C     1.81190  -3.87510   1.05210    39    43    38    36
 C     4.06570  -1.24040   1.79300    40    24    37    55
 C     0.66690  -4.07420  -1.01310    41    42    36    45
 C     0.61460  -3.43350  -2.25460    42    57    18    41
 C     0.62000  -3.93600   1.70030    43    39    48    44
 C    -0.61410  -4.14040   1.10320    44    43    51    45
 C    -0.61150  -4.22810  -0.33630    45    46    44    41
 C    -1.82860  -3.84820  -1.00420    46    47    56    45
 C    -2.94730  -3.48130  -0.23360    47    58    52    46
 C     0.77180  -3.12160   2.81120    48    49    53    43
 C    -0.26920  -2.50410   3.32540    49    48    50    81
 C    -1.50580  -2.76520   2.87840    50    49    65    51
 C    -1.73890  -3.61250   1.79150    51    52    50    44
 C    -2.88430  -3.31830   1.13180    52    51    47    67
 C     1.98520  -2.53160   2.84520    53    48    38    54
 C     2.20470  -1.21040   3.31460    54    55    53    80
 C     3.29520  -0.52150   2.74920    55    54    40    76
 C    -1.76110  -3.20110  -2.26990    56    57    60    46
 C    -0.54270  -2.97400  -2.80750    57    56    42     3
 C    -3.92110  -2.61460  -0.66770    58    59    61    47
 C    -3.80220  -2.00590  -1.87170    59    60    58    62
 C    -2.71980  -2.26510  -2.62640    60    59    56     1
 C    -4.40640  -1.89430   0.38730    61    64    67    58
 C    -4.16550  -0.70960  -2.03660    62    63    59     7
 C    -4.67770  -0.02540  -0.99570    63    17    62    64
 C    -4.76960  -0.60450   0.23740    64    61    63    72
 C    -2.25590  -1.63900   3.16080    65    66    50    68
 C    -3.39790  -1.33600   2.48330    66    65    67    71
 C    -3.73750  -2.27370   1.49900    67    61    52    66
 C    -1.40880  -0.67980   3.68610    68    69    81    65
 C    -1.62540   0.67040   3.55350    69    68    84    70
 C    -2.84590   1.06640   2.86330    70    74    71    69
 C    -3.72030   0.04070   2.33300    71    72    66    70
 C    -4.45680   0.34920   1.17420    72    94    64    71
 C    -1.72560   3.14030   2.39540    73    93    74    83
 C    -2.85630   2.34610   2.23060    74    73    70    95
 C     3.97320   1.44450   1.55320    75    88    25    76
 C     3.22240   0.89840   2.62720    76    75    55    78
 C     1.80360   2.90460   2.44260    77    82    87    78
 C     2.06030   1.63140   3.06880    78    77    76    79
 C     0.93370   0.90760   3.65410    79    80    78    84
 C     1.05180  -0.50660   3.77030    80    81    79    54
 C    -0.14950  -1.22110   3.79810    81    49    68    80
 C     0.50810   3.40540   2.49200    82    89    83    77
 C    -0.55940   2.71100   3.02970    83    84    82    73
 C    -0.42070   1.46590   3.58820    84    83    69    79
 C     0.68730   4.52380   0.43610    85    86    89    92
 C     1.93320   4.06800   0.31540    86    85    87    28
 C     2.57070   3.34450   1.31790    87    88    86    77
 C     3.59150   2.58570   0.88910    88    87    75    27
 C    -0.01910   4.25490   1.55510    89    93    85    82
 C    -1.98610   4.18760   0.29870    90    96    93    91
 C    -1.24680   4.31720  -0.83750    91    92    90    14
 C     0.05950   4.49180  -0.77130    92    91    33    85
 C    -1.35330   4.09670   1.49100    93    89    90    73
 C    -4.32090   1.54620   0.51740    94    95    72    17
 C    -3.58990   2.56890   1.01880    95    94    96    74
 C    -3.05550   3.42320   0.06300    96    90    95    15
