    96
C96-C1-123                                                                      
 C     3.43400   2.37280   1.55600     1     2     8    60
 C     3.88570   1.13280   1.82410     2     1     3     7
 C     4.53540   0.51770   0.74760     3     4     2    57
 C     4.63290  -0.81910   0.65780     4     3     5    12
 C     4.08580  -1.58530   1.62110     5     4    13     6
 C     3.34440  -1.01880   2.63000     6    23     5     7
 C     3.16900   0.35340   2.78670     7     6     2    19
 C     2.34150   2.90710   2.20510     8    62     1     9
 C     1.51460   2.16280   3.08680     9     8    19    18
 C     3.97570  -2.36960  -0.94940    10    12    27    11
 C     3.47630  -3.19700   0.00880    11    13    10    35
 C     4.55830  -1.19060  -0.65100    12    10     4    41
 C     3.53470  -2.78630   1.29910    13    14    11     5
 C     2.49270  -3.03030   2.11330    14    13    15    23
 C     1.39690  -3.77000   1.69910    15    16    14    34
 C     0.27330  -3.47890   2.40200    16    36    15    24
 C    -0.24780   3.63190   2.29770    17    63    77    18
 C     0.12830   2.55160   3.13790    18    17    92     9
 C     1.92500   0.82920   3.38010    19     9    21     7
 C    -0.50340   0.26970   3.82430    20    95    92    21
 C     0.90120  -0.12800   3.76200    21    22    19    20
 C     1.19790  -1.51820   3.53200    22    23    24    21
 C     2.38060  -1.92050   2.97150    23     6    22    14
 C     0.17510  -2.41130   3.30320    24    96    22    16
 C     1.73920  -1.34990  -3.45460    25    26    42    31
 C     2.94930  -1.32690  -2.83680    26    25    27    40
 C     3.16920  -2.44520  -2.03150    27    10    26    28
 C     2.18440  -3.40040  -1.75370    28    30    35    27
 C    -0.20000  -3.88100  -1.66090    29    30    33    38
 C     0.94970  -3.38580  -2.34610    30    28    31    29
 C     0.79680  -2.35650  -3.26930    31    54    30    25
 C    -2.55450  -3.42330  -1.21470    32    39    83    33
 C    -1.48200  -3.40620  -2.10990    33    32    53    29
 C     1.27070  -4.18760   0.33160    34    35    15    38
 C     2.35890  -3.83580  -0.46060    35    11    28    34
 C    -0.96330  -3.73180   1.90900    36    16    87    37
 C    -1.16900  -4.15050   0.59150    37    39    36    38
 C    -0.03740  -4.28210  -0.26060    38    37    34    29
 C    -2.40240  -3.76330   0.10220    39    32    37    90
 C     3.52070  -0.05980  -2.52900    40    41    26    44
 C     4.35670  -0.06240  -1.40130    41    12    57    40
 C     1.07710  -0.19660  -3.80420    42    47    25    43
 C     1.53050   1.08130  -3.51750    43    42    51    44
 C     2.81710   1.16200  -2.84640    44    45    40    43
 C     3.06070   2.31020  -2.02530    45    46    44    56
 C     2.06790   3.29150  -1.99300    46    58    52    45
 C    -0.25030  -0.51380  -3.92300    47    42    49    54
 C    -2.45460  -0.14020  -3.39900    48    68    49    55
 C    -1.25400   0.42070  -3.78030    49    47    48    50
 C    -0.91850   1.75920  -3.46350    50    49    51    70
 C     0.49530   2.07340  -3.37540    51    52    43    50
 C     0.83550   3.17430  -2.62620    52    51    72    46
 C    -1.56330  -2.38400  -3.10500    53    54    55    33
 C    -0.41110  -1.85960  -3.59990    54    31    53    47
 C    -2.61840  -1.48690  -3.09100    55    84    53    48
 C     3.86200   2.20420  -0.84020    56    57    60    45
 C     4.44790   1.01730  -0.55890    57    56    41     3
 C     1.87100   4.11870  -0.91730    58    59    61    46
 C     2.55520   3.88720   0.22520    59    60    58    62
 C     3.49690   2.95090   0.27630    60    59    56     1
 C     0.57020   4.48790  -0.87520    61    64    58    72
 C     1.87960   3.91120   1.41040    62    63     8    59
 C     0.60580   4.26620   1.44900    63    62    17    64
 C    -0.05780   4.61840   0.31380    64    65    61    63
 C    -1.34400   4.29470   0.45160    65    64    67    77
 C    -3.19160   3.13230  -0.27310    66    67    73    75
 C    -2.10710   3.87000  -0.63500    67    66    65    71
 C    -3.38280   0.56880  -2.68540    68    48    69    79
 C    -3.12860   1.87550  -2.31280    69    68    73    70
 C    -1.90880   2.52300  -2.69950    70    71    69    50
 C    -1.44870   3.59720  -1.87910    71    72    70    67
 C    -0.09990   3.91900  -1.92650    72    61    52    71
 C    -3.74940   2.20110  -1.10700    73    66    81    69
 C    -4.21130   1.62700   0.96580    74    78    75    81
 C    -3.43580   2.72550   1.03700    75    74    66    76
 C    -2.49840   2.91590   2.05320    76    77    75    91
 C    -1.49860   3.75190   1.73330    77    76    17    65
 C    -4.10460   0.67830   1.90260    78    74    85    93
 C    -4.13640  -0.33740  -1.94080    79    84    80    68
 C    -4.66510  -0.03620  -0.69890    80    81    79    86
 C    -4.45390   1.28010  -0.33890    81    74    80    73
 C    -4.10510  -2.28700  -0.03300    82    83    90    86
 C    -3.62070  -2.54560  -1.28690    83    84    82    32
 C    -3.64340  -1.58040  -2.21640    84    83    55    79
 C    -4.33020  -0.62820   1.60410    85    78    88    86
 C    -4.63560  -1.03770   0.30430    86    85    82    80
 C    -1.85160  -2.92540   2.59690    87    89    36    96
 C    -3.53980  -1.36500   2.45190    88    89    85    94
 C    -3.06380  -2.59360   2.09050    89    87    88    90
 C    -3.35240  -3.04990   0.83150    90    89    82    39
 C    -2.24290   1.86610   2.98030    91    93    76    92
 C    -0.89960   1.62440   3.48720    92    18    20    91
 C    -3.11670   0.78900   2.86890    93    94    78    91
 C    -2.76710  -0.47620   3.21390    94    93    95    88
 C    -1.49760  -0.76500   3.68090    95    96    94    20
 C    -1.11630  -2.06190   3.39780    96    24    95    87
