    96
C96-C1-77                                                                       
 C     0.67050  -3.87210  -1.16590     1     2     8    59
 C     1.83850  -3.77930  -0.50270     2     1     3     7
 C     2.84080  -3.17310  -1.24850     3     4     2    58
 C     3.89250  -2.58380  -0.65290     4     3     5    12
 C     3.94040  -2.50750   0.69350     5     4    13     6
 C     2.89370  -2.99750   1.44580     6    23     5     7
 C     1.79370  -3.66960   0.92240     7     6     2    19
 C    -0.50350  -4.01760  -0.51030     8     1    70     9
 C    -0.65900  -3.89420   0.88910     9     8    18    19
 C     4.81440  -0.44420  -0.83040    10    12    26    11
 C     4.89640  -0.35990   0.54060    11    13    29    10
 C     4.29920  -1.53830  -1.42860    12    10     4    36
 C     4.44170  -1.39600   1.29000    13    14    11     5
 C     3.72850  -1.17000   2.41910    14    13    15    23
 C     3.48060   0.12500   2.86720    15    16    14    28
 C     2.34270   0.22570   3.60280    16    15    51    24
 C    -2.94480  -3.31800   0.31390    17    91    71    18
 C    -1.94670  -3.48020   1.31410    18     9    17    94
 C     0.52710  -3.62200   1.62640    19     9     7    21
 C    -0.90820  -2.27120   3.19630    20    94    95    21
 C     0.40360  -2.78970   2.81650    21    22    19    20
 C     1.58120  -2.06660   3.21230    22    23    24    21
 C     2.78040  -2.19800   2.55020    23     6    22    14
 C     1.44490  -0.83480   3.81730    24    96    22    16
 C     3.64570   2.67770  -0.26350    25    27    32    30
 C     4.49990   0.77110  -1.35010    26    10    27    34
 C     4.44960   1.61350  -0.24620    27    25    29    26
 C     3.90090   1.24290   2.08740    28    29    15    31
 C     4.62470   0.92090   0.92480    29    11    27    28
 C     2.96720   3.09650   0.85440    30    25    44    31
 C     3.04230   2.40310   2.06190    31    30    52    28
 C     2.94170   2.98030  -1.38070    32    25    38    33
 C     2.93720   2.13490  -2.49650    33    37    32    34
 C     3.67370   0.94360  -2.48190    34    33    26    35
 C     3.09200  -0.23130  -3.09600    35    36    55    34
 C     3.45900  -1.44150  -2.50880    36    58    12    35
 C     1.76150   2.16670  -3.18150    37    33    40    54
 C     1.84240   3.70830  -0.96160    38    39    44    32
 C     0.69130   3.78410  -1.67710    39    38    40    48
 C     0.72290   3.00270  -2.83690    40    42    37    39
 C    -1.56270   2.76570  -2.83320    41    42    69    49
 C    -0.39270   2.46620  -3.35120    42    41    40    60
 C     0.64870   3.87080   1.14250    43    44    50    47
 C     1.83040   3.76200   0.41610    44    38    30    43
 C    -1.73290   3.03980   2.29370    45    53    46    80
 C    -1.85040   3.59940   1.03120    46    45    84    47
 C    -0.60490   4.02010   0.41830    47    48    46    43
 C    -0.53900   3.98680  -1.01630    48    49    39    47
 C    -1.66600   3.52270  -1.67920    49    85    41    48
 C     0.71770   3.25240   2.41860    50    53    43    52
 C     1.61910   1.38760   3.65510    51    86    16    52
 C     1.87840   2.50150   2.85020    52    51    31    50
 C    -0.51750   2.86770   2.92270    53    90    45    50
 C     1.20970   1.04820  -3.79740    54    60    55    37
 C     1.79460  -0.19620  -3.71880    55    54    35    56
 C     0.85820  -1.30680  -3.70690    56    57    55    63
 C     1.33750  -2.45660  -3.02070    57    59    58    56
 C     2.58270  -2.49460  -2.44760    58    57    36     3
 C     0.41890  -3.26120  -2.40350    59    68    57     1
 C    -0.14760   1.23550  -3.89800    60    42    54    62
 C    -2.42760   0.58200  -3.45720    61    65    69    62
 C    -1.11380   0.22710  -3.91620    62    60    63    61
 C    -0.60160  -1.10000  -3.80220    63    62    67    56
 C    -4.27680   0.05300  -1.95920    64    74    79    65
 C    -3.31520  -0.38030  -2.92320    65    61    66    64
 C    -2.84670  -1.71390  -2.81310    66    65    72    67
 C    -1.51620  -2.04940  -3.22750    67    68    66    63
 C    -0.91130  -3.09230  -2.51950    68    59    70    67
 C    -2.58390   1.88910  -2.92520    69    41    77    61
 C    -1.46680  -3.66740  -1.40990    70    71     8    68
 C    -2.66460  -3.35000  -1.02640    71    70    72    17
 C    -3.41050  -2.45030  -1.73290    72    75    71    66
 C    -4.93470   0.04160   0.17330    73    76    78    74
 C    -4.76210  -0.72710  -0.95170    74    75    64    73
 C    -4.31370  -1.98160  -0.83050    75    74    72    91
 C    -4.63210  -0.47050   1.39520    76    81    73    92
 C    -3.42770   2.21760  -1.90860    77    79    69    85
 C    -4.59000   1.33790  -0.10060    78    73    79    83
 C    -4.27140   1.32970  -1.43430    79    77    78    64
 C    -2.60770   2.06580   2.77480    80    82    89    45
 C    -4.02220   0.28690   2.33130    81    76    87    82
 C    -3.69910   1.63000   2.08070    82    80    81    83
 C    -3.94110   2.20140   0.81220    83    82    78    84
 C    -3.00220   3.16160   0.29230    84    85    46    83
 C    -2.83110   3.15510  -1.08530    85    49    77    84
 C     0.37190   1.02890   4.03970    86    90    51    96
 C    -3.19580  -0.56450   3.07510    87    88    93    81
 C    -2.09790  -0.12990   3.72900    88    87    89    95
 C    -1.88490   1.24690   3.62230    89    90    80    88
 C    -0.66760   1.78340   3.73640    90    86    89    53
 C    -4.01850  -2.49600   0.41090    91    92    17    75
 C    -4.15670  -1.74960   1.51230    92    91    76    93
 C    -3.21910  -1.82210   2.50920    93    92    87    94
 C    -2.08200  -2.66660   2.47890    94    93    18    20
 C    -0.97040  -0.98700   3.87260    95    96    88    20
 C     0.22840  -0.33550   4.10700    96    24    86    95
