    96
C96-C2-40                                                                       
 C     2.57760  -3.10310   1.76130     1     2     6    68
 C     1.33590  -3.58250   1.94930     2     1     3     9
 C     0.82560  -4.28260   0.86140     3     4    65     2
 C    -0.49320  -4.44430   0.68030     4     5     3    32
 C    -1.35180  -3.94380   1.57790     5     4    21    10
 C     3.01920  -1.97380   2.40810     6    70     1     7
 C     2.15410  -1.13960   3.15940     7     6     8    16
 C     0.81920  -1.60650   3.37220     8     7     9    12
 C     0.44890  -2.88640   2.81330     9    10     2     8
 C    -0.89280  -3.14130   2.59900    10    14     5     9
 C     0.13510   0.75640   3.62610    11    15    18    12
 C    -0.22860  -0.64450   3.64850    12    11     8    13
 C    -1.62840  -1.00750   3.41220    13    14    28    12
 C    -1.89610  -2.26460   2.88700    14    10    13    22
 C    -0.91990   1.64660   3.41850    15    96    27    11
 C     2.48120   0.26080   3.13240    16    17    18     7
 C     3.63220   0.64550   2.41030    17    91    71    16
 C     1.46150   1.23930   3.30990    18    16    11    93
 C    -3.90430  -2.64420  -0.46580    19    20    24    33
 C    -2.99650  -3.62110  -0.12680    20    19    21    31
 C    -2.59550  -3.56110   1.20620    21     5    22    20
 C    -2.98920  -2.55210   2.06740    22    23    21    14
 C    -3.91510  -1.60240   1.73440    23    22    29    24
 C    -4.40290  -1.70950   0.41840    24    26    19    23
 C    -4.74200   0.59620   0.27980    25    26    42    30
 C    -4.73610  -0.59620  -0.30280    26    25    24    36
 C    -2.23490   1.26660   3.21750    27    87    28    15
 C    -2.65240  -0.05080   3.15960    28    27    13    29
 C    -3.79890  -0.33390   2.32080    29    23    30    28
 C    -4.32410   0.74530   1.58670    30    88    25    29
 C    -2.01990  -3.99330  -1.08080    31    32    35    20
 C    -0.79440  -4.42420  -0.65070    32     4    31    45
 C    -3.83950  -1.99870  -1.68480    33    34    36    19
 C    -2.82310  -2.26850  -2.51620    34    33    35    37
 C    -1.93630  -3.24830  -2.24440    35    34    31    43
 C    -4.30970  -0.73450  -1.60320    36    33    26    39
 C    -2.21120  -1.26370  -3.21950    37    34    38    49
 C    -2.62510   0.05420  -3.16640    38    37    60    39
 C    -3.77570   0.34270  -2.33350    39    41    36    38
 C    -2.96480   2.54910  -2.06850    40    41    85    59
 C    -3.89780   1.60580  -1.73600    41    40    39    42
 C    -4.39910   1.72110  -0.42620    42    25    83    41
 C    -0.73710  -2.88740  -2.83890    43    44    49    35
 C     0.48330  -3.33990  -2.40980    44    43    45    46
 C     0.40420  -4.17690  -1.29550    45    65    32    44
 C     1.64140  -2.55890  -2.64530    46    44    47    51
 C     2.76460  -2.80340  -1.77880    47    48    64    46
 C     3.75190  -1.84270  -1.71450    48    54    47    66
 C    -0.89520  -1.64290  -3.42030    49    43    37    50
 C     0.16150  -0.75780  -3.61840    50    49    51    61
 C     1.48500  -1.23670  -3.28740    51    53    50    46
 C     2.18060   1.14070  -3.13400    52    55    62    53
 C     2.50420  -0.26090  -3.10320    53    54    51    52
 C     3.64980  -0.63600  -2.37070    54    57    48    53
 C     3.04180   1.97490  -2.37460    55    56    82    52
 C     4.11260   1.52590  -1.66320    56    57    55    74
 C     4.45080   0.23860  -1.67490    57    56    69    54
 C     0.47540   2.88400  -2.80020    58    63    81    62
 C    -1.86580   2.26090  -2.88620    59    63    60    40
 C    -1.59770   1.00480  -3.41560    60    59    38    61
 C    -0.19660   0.64450  -3.64320    61    62    50    60
 C     0.84540   1.60440  -3.36000    62    52    61    58
 C    -0.86910   3.14510  -2.58220    63    59    78    58
 C     2.60640  -3.60360  -0.60130    64    65    68    47
 C     1.42040  -4.20800  -0.39080    65    64    45     3
 C     4.55840  -1.63910  -0.59530    66    67    69    48
 C     4.21240  -2.25790   0.55530    67    68    66    70
 C     3.27310  -3.20150   0.55120    68    67    64     1
 C     4.97120  -0.35250  -0.56390    69    66    57    72
 C     4.09960  -1.52610   1.70930    70    71     6    67
 C     4.43560  -0.23910   1.72030    71    70    72    17
 C     4.96310   0.36120   0.61590    72    75    71    69
 C     3.27050   3.20150  -0.51610    73    74    77    82
 C     4.21820   2.25900  -0.50350    74    73    75    56
 C     4.55400   1.64260   0.65290    75    72    74    91
 C     1.40730   4.19130   0.40330    76    77    94    80
 C     2.59440   3.59170   0.63960    77    76    73    92
 C    -1.34760   3.94750  -1.56790    78    79    85    63
 C    -0.48470   4.44430  -0.67250    79    78    80    89
 C     0.83210   4.28230  -0.85840    80    79    81    76
 C     1.35940   3.58310  -1.93660    81    82    80    58
 C     2.59590   3.10750  -1.74020    82    81    55    73
 C    -3.91720   2.65060   0.47220    83    88    84    42
 C    -3.00520   3.62130   0.12360    84    83    85    90
 C    -2.59050   3.56630  -1.20480    85    78    40    84
 C    -1.96110   3.25570   2.24940    86    87    90    96
 C    -2.85370   2.27870   2.52290    87    88    86    27
 C    -3.86450   2.01200   1.68990    88    87    30    83
 C    -0.79460   4.42260   0.65710    89    79    90    94
 C    -2.02520   3.99780   1.07640    90    89    86    84
 C     3.75010   1.85780   1.76390    91    92    17    75
 C     2.75480   2.80530   1.82560    92    91    77    93
 C     1.62190   2.56360   2.67650    93    95    92    18
 C     0.39320   4.17030   1.31680    94    76    89    95
 C     0.46590   3.33910   2.43510    95    96    94    93
 C    -0.75990   2.89750   2.84990    96    95    15    86
