    96
C96-C1-23                                                                       
 C     4.87880  -0.08230  -0.28910     1     2     5    57
 C     4.68540   1.29510  -0.26930     2    45    15     1
 C     3.90930  -2.68490  -0.08800     3     4     6    56
 C     4.15810  -1.97810   1.01990     4     3     5     7
 C     4.65660  -0.71300   0.94120     5     4    13     1
 C     2.89030  -3.58140  -0.09410     6     3    63     9
 C     3.30790  -2.09340   2.09950     7    17     4     8
 C     2.22710  -2.96610   2.13970     8     7    19     9
 C     2.03490  -3.81870   0.99360     9    11     6     8
 C    -0.26510  -3.99550   1.53790    10    11    96    18
 C     0.75280  -4.27530   0.67760    11    10     9    12
 C     0.32630  -4.32090  -0.65670    12    62    94    11
 C     4.18520  -0.03120   2.04590    13    14     5    17
 C     4.01040   1.32370   2.03250    14    13    16    15
 C     4.30000   1.99960   0.85830    15    25     2    14
 C     2.93430   1.77800   2.76510    16    23    14    22
 C     3.30610  -0.88070   2.73050    17     7    21    13
 C    -0.09430  -3.13430   2.61680    18    33    19    10
 C     1.10080  -2.53550   2.92170    19    18     8    20
 C     1.01810  -1.21970   3.52700    20    21    19    35
 C     2.18130  -0.42240   3.41410    21    22    17    20
 C     2.04540   0.94350   3.42350    22    21    37    16
 C     2.23960   2.89920   2.40570    23    16    24    27
 C     2.54630   3.58560   1.25310    24    26    25    23
 C     3.55100   3.08900   0.46500    25    24    15    44
 C     1.47090   4.13340   0.63070    26    24    30    42
 C     0.94310   2.77020   2.87680    27    29    37    23
 C    -1.43460   2.85710   2.46670    28    29    32    40
 C    -0.13580   3.39660   2.30860    29    27    30    28
 C     0.19750   4.11410   1.15880    30    54    26    29
 C    -3.56290   2.48160   1.36920    31    41    32    89
 C    -2.41280   3.23960   1.48270    32    31    53    28
 C    -1.31070  -2.56340   2.88550    33    91    18    34
 C    -1.48910  -1.27010   3.39980    34    33    35    38
 C    -0.29660  -0.56030   3.69750    35    34    36    20
 C    -0.38980   0.88590   3.63160    36    37    35    40
 C     0.81640   1.55370   3.50170    37    27    22    36
 C    -2.71510  -0.61400   3.07740    38    93    39    34
 C    -2.76110   0.80710   2.95560    39    41    40    38
 C    -1.58720   1.57620   3.18380    40    39    36    28
 C    -3.75470   1.32500   2.09410    41    31    87    39
 C     1.34170   4.09790  -0.74800    42    47    43    26
 C     2.24660   3.46520  -1.55800    43    42    44    51
 C     3.40820   3.03270  -0.91390    44    45    25    43
 C     4.10820   1.95140  -1.33650    45    46    44     2
 C     3.64460   1.24950  -2.38690    46    45    58    52
 C     0.02410   4.13750  -1.03080    47    42    49    54
 C    -1.84340   3.27390  -2.03470    48    49    75    55
 C    -0.51030   3.49630  -2.13900    49    48    47    50
 C     0.31370   2.64840  -2.92680    50    49    51    74
 C     1.71290   2.69930  -2.64420    51    52    50    43
 C     2.45670   1.59410  -3.00280    52    51    65    46
 C    -1.99060   3.90010   0.28330    53    54    55    32
 C    -0.69710   4.25020   0.15540    54    53    30    47
 C    -2.61640   3.56730  -0.90630    55    90    53    48
 C     4.02660  -2.08060  -1.32410    56    57    61     3
 C     4.48430  -0.78890  -1.45620    57    56    58     1
 C     3.82650  -0.08620  -2.46290    58    46    59    57
 C     2.74860  -0.58630  -3.18240    59    60    65    58
 C     2.29410  -1.86180  -3.04340    60    59    61    70
 C     3.01920  -2.61150  -2.10410    61    63    56    60
 C     1.14290  -3.87970  -1.63740    62    63    12    73
 C     2.40380  -3.57550  -1.38030    63    62    61     6
 C     0.50720   0.27750  -3.71180    64    65    74    69
 C     1.88180   0.44100  -3.49970    65    52    59    64
 C    -3.51480  -0.23550  -2.61390    66    85    78    67
 C    -2.26870  -0.10190  -3.27200    67    66    68    76
 C    -1.43490  -1.25690  -3.32950    68    67    69    71
 C    -0.02190  -1.06920  -3.61040    69    70    64    68
 C     0.91530  -2.11180  -3.26400    70    73    60    69
 C    -1.89320  -2.44840  -2.61180    71    72    79    68
 C    -0.91220  -3.34270  -2.23230    72    73    71    94
 C     0.39760  -3.19860  -2.57130    73    72    62    70
 C    -0.30740   1.43570  -3.49110    74    76    64    50
 C    -2.44600   2.22270  -2.67990    75    83    48    76
 C    -1.70580   1.22410  -3.33320    76    75    74    67
 C    -4.75250  -0.94740  -0.89450    77    80    84    78
 C    -3.89850  -1.36720  -1.90950    78    79    66    77
 C    -3.08210  -2.47780  -1.82090    79    78    71    82
 C    -4.64060  -1.55560   0.30390    80    81    77    86
 C    -3.86100  -2.63800   0.45610    81    80    92    82
 C    -3.11890  -3.22720  -0.58230    82    95    81    79
 C    -3.63530   2.01960  -2.04410    83    85    75    90
 C    -4.92900   0.39200  -0.96230    84    77    85    88
 C    -4.20020   0.80860  -2.03600    85    83    84    66
 C    -4.53760  -0.77080   1.44210    86    87    93    80
 C    -4.64000   0.55880   1.35860    87    86    88    41
 C    -4.92290   1.17170   0.17630    88    89    87    84
 C    -4.29040   2.36210   0.18580    89    88    90    31
 C    -3.72710   2.83250  -0.94540    90    55    89    83
 C    -2.21020  -3.14360   2.03010    91    92    96    33
 C    -3.33940  -2.54540   1.73020    92    91    93    81
 C    -3.64320  -1.34260   2.28590    93    86    92    38
 C    -0.96690  -4.08940  -1.05800    94    95    12    72
 C    -2.00120  -3.96200  -0.19270    95    94    82    96
 C    -1.57770  -3.93210   1.13880    96    91    10    95
