    96
C96-C1-56                                                                       
 C    -4.04100  -2.16470   0.28900     1     6     2    63
 C    -3.39310  -2.85740  -0.70940     2     1     3    10
 C    -3.41320  -2.18730  -1.94390     3     4    62     2
 C    -2.37930  -2.29590  -2.81540     4     5     3    28
 C    -1.40060  -3.13290  -2.56690     5     4    13    11
 C    -3.58380  -2.22300   1.58220     6     1    70     8
 C    -1.75030  -2.41780   2.99320     7    18    71     8
 C    -2.45980  -2.97270   1.93500     8     7     6     9
 C    -1.74920  -3.74370   0.96430     9     8    10    20
 C    -2.27010  -3.67500  -0.37890    10    11     2     9
 C    -1.33300  -3.84620  -1.38630    11    22     5    10
 C     1.92230  -3.22640  -2.16390    12    14    15    24
 C    -0.16600  -2.86300  -3.05480    13    14     5    26
 C     0.66020  -3.57480  -2.25310    14    12    13    22
 C     2.60830  -3.46580  -1.02350    15    12    44    17
 C     2.46430  -3.39270   1.27260    16    23    17    42
 C     1.94600  -3.93890   0.11910    17    16    15    21
 C    -0.41790  -2.62220   3.16270    18     7    19    91
 C     0.30560  -3.43430   2.32460    19    18    23    20
 C    -0.32330  -4.00920   1.17550    20    19    21     9
 C     0.55800  -4.24400   0.06380    21    22    17    20
 C    -0.02350  -4.12380  -1.18570    22    11    14    21
 C     1.65570  -3.12190   2.33380    23    16    19    94
 C     2.39010  -2.11390  -2.82440    24    39    12    25
 C     1.54740  -1.24660  -3.55310    25    24    26    34
 C     0.19660  -1.65480  -3.70440    26    27    13    25
 C    -0.84760  -0.71400  -3.88530    27    28    26    30
 C    -2.14040  -1.11680  -3.47700    28    47     4    27
 C     0.82200   1.10070  -3.70070    29    37    30    34
 C    -0.56650   0.68350  -3.86760    30    27    31    29
 C    -1.65720   1.55390  -3.45330    31    32    46    30
 C    -1.30120   2.74820  -2.83810    32    38    48    31
 C     3.15110   0.50620  -2.88010    33    35    41    34
 C     1.91150   0.13590  -3.55430    34    25    33    29
 C     3.25630   1.81000  -2.38890    35    36    86    33
 C     2.21580   2.69310  -2.47270    36    35    37    54
 C     1.04340   2.38990  -3.11630    37    36    38    29
 C    -0.02070   3.13140  -2.65940    38    32    37    56
 C     3.50220  -1.73390  -2.12760    39    41    24    44
 C     4.64750  -0.05400  -0.98990    40    85    45    41
 C     3.94640  -0.44210  -2.14990    41    39    40    33
 C     3.53370  -2.51160   1.29870    42    43    88    16
 C     4.17650  -2.10430   0.15050    43    45    44    42
 C     3.64520  -2.57060  -1.01490    44    43    15    39
 C     4.69600  -0.84650   0.15770    45    43    90    40
 C    -2.93850   1.05810  -3.05720    46    47    50    31
 C    -3.14420  -0.28790  -3.07150    47    46    28    62
 C    -2.04370   3.34650  -1.84610    48    49    57    32
 C    -3.19550   2.82910  -1.46190    49    48    50    52
 C    -3.68180   1.71860  -2.06420    50    49    60    46
 C    -2.73350   2.77280   2.01260    51    53    83    65
 C    -3.55760   2.89070  -0.14820    52    49    64    53
 C    -2.67920   3.42490   0.80520    53    51    52    59
 C     2.28200   3.53680  -1.35400    54    78    55    36
 C     1.14750   4.06290  -0.76420    55    56    54    81
 C     0.02690   3.92570  -1.50450    56    55    57    38
 C    -1.20870   3.97140  -0.95940    57    56    48    59
 C    -0.27270   3.93790   1.26350    58    81    59    82
 C    -1.44250   3.99160   0.42520    59    57    53    58
 C    -4.46790   1.08350  -1.11960    60    61    50    64
 C    -4.60830  -0.28510  -1.12990    61    62    60    63
 C    -3.95840  -0.94340  -2.14030    62    61     3    47
 C    -4.64920  -0.92330   0.09570    63    67    61     1
 C    -4.38480   1.80190   0.06720    64    66    52    60
 C    -3.57750   1.69260   2.24210    65    68    66    51
 C    -4.42290   1.16230   1.28240    66    64    65    67
 C    -4.56550  -0.21680   1.27550    67    70    63    66
 C    -2.94620   0.89450   3.16350    68    65    69    72
 C    -3.12610  -0.47180   3.16750    69    71    70    68
 C    -3.92350  -1.01440   2.19210    70    69    67     6
 C    -2.05500  -1.19650   3.56640    71    69    77     7
 C    -1.73760   1.47690   3.51340    72    83    76    68
 C     1.99760   2.77620   2.46710    73    74    80    95
 C     0.78410   2.50390   3.05870    74    73    82    75
 C     0.66810   1.23390   3.75030    75    76    74    92
 C    -0.64620   0.74570   3.95240    76    72    77    75
 C    -0.87570  -0.62050   3.98730    77    91    71    76
 C     3.35870   3.17200  -0.64210    78    54    79    86
 C     3.27080   3.19080   0.71220    79    78    87    80
 C     2.11510   3.56910   1.33400    80    79    81    73
 C     1.01210   4.06800   0.65950    81    80    58    55
 C    -0.36300   3.18090   2.49990    82    83    74    58
 C    -1.60270   2.64270   2.79880    83    72    51    82
 C     4.60160   1.25560   0.78860    84    90    87    85
 C     4.65900   1.23440  -0.58100    85    86    40    84
 C     4.00490   2.16280  -1.28630    86    85    78    35
 C     3.87170   2.20390   1.42470    87    84    79    95
 C     3.35360  -1.65810   2.37520    88    94    89    42
 C     3.82600  -0.36220   2.39070    89    88    90    96
 C     4.58300  -0.01110   1.26660    90    84    45    89
 C     0.12750  -1.50570   3.80680    91    77    93    18
 C     1.77460   0.27660   3.68090    92    96    93    75
 C     1.43290  -1.11520   3.69240    93    91    94    92
 C     2.20730  -2.02400   3.00700    94    88    93    23
 C     3.07920   1.90450   2.50200    95    87    73    96
 C     3.00340   0.62440   3.03850    96    95    92    89
