    96
C96-D2-154                                                                      
 C     2.96100  -1.61730  -2.72120     1     2     5    50
 C     2.90980  -0.28940  -3.06800     2     1    46    15
 C     2.46990  -3.64510  -0.95380     3     4    11    51
 C     3.52700  -2.87150  -0.76260     4     3     5     7
 C     3.82740  -1.89140  -1.65400     5     4    13     1
 C     2.99360  -1.84780   2.53160     6     8    18    94
 C     3.90410  -2.49880   0.49720     7     4    17     8
 C     3.09440  -2.85150   1.58800     8     6     9     7
 C     1.98180  -3.68760   1.42380     9     8    11    10
 C     0.80440  -3.52450   2.22700    10    12     9    93
 C     1.75440  -4.12840   0.09960    11    57     3     9
 C    -0.40010  -3.96730   1.70600    12    90    56    10
 C     4.53150  -0.92980  -0.96540    13    14     5    17
 C     4.48530   0.38400  -1.35590    14    13    16    15
 C     3.66130   0.68220  -2.42680    15    24    14     2
 C     4.54520   1.33440  -0.36080    16    22    14    20
 C     4.56550  -1.30020   0.37720    17    19     7    13
 C     3.67420  -0.64920   2.42410    18     6    19    26
 C     4.50540  -0.34270   1.35860    19    20    17    18
 C     4.53290   0.97300   0.98500    20    19    28    16
 C     3.51820   2.90410   0.76540    21    25    28    22
 C     3.88660   2.53620  -0.49820    22    21    16    23
 C     3.08080   2.86760  -1.59550    23    24    22    30
 C     2.97610   1.87110  -2.54150    24    15    23    33
 C     2.45060   3.66160   0.96280    25    21    29    43
 C     2.90760   0.31380   3.06250    26    82    27    18
 C     2.95320   1.64550   2.72470    27    26    28    42
 C     3.82630   1.93520   1.66800    28    21    20    27
 C     1.73230   4.13110  -0.09840    29    37    25    30
 C     1.96360   3.69660  -1.42380    30    23    29    31
 C     0.78750   3.52980  -2.22670    31    39    30    32
 C     0.68250   2.43380  -3.14590    32    33    31    34
 C     1.81250   1.64070  -3.25540    33    24    32    46
 C    -0.58350   1.81830  -3.46960    34    41    32    35
 C    -0.58910   0.39950  -3.79360    35    36    45    34
 C    -1.77180  -0.29450  -3.56340    36    65    47    35
 C     0.50870   4.41750   0.38670    37    38    29    44
 C    -0.54600   4.41870  -0.40070    38    37    89    39
 C    -0.41700   3.96470  -1.70250    39    40    31    38
 C    -1.63380   3.46010  -2.04440    40    39    77    41
 C    -1.79190   2.39040  -2.93100    41    40    66    34
 C     1.77340   2.40560   2.91810    42    43    27    84
 C     1.59990   3.47210   2.03650    43    44    25    42
 C     0.38430   3.97920   1.69400    44    43    37    87
 C     0.59020  -0.40410  -3.79530    45    46    35    49
 C     1.77010   0.29130  -3.57290    46     2    33    45
 C    -1.81360  -1.64610  -3.24760    47    48    58    36
 C    -0.67880  -2.43380  -3.14110    48    47    53    49
 C     0.58590  -1.81970  -3.46540    49    50    48    45
 C     1.79000  -2.38870  -2.91940    50    51     1    49
 C     1.62170  -3.45250  -2.03350    51    54     3    50
 C    -1.96530  -3.69270  -1.41240    52    60    55    53
 C    -0.78950  -3.52660  -2.21800    53    54    48    52
 C     0.41010  -3.96640  -1.68470    54    51    57    53
 C    -1.73850  -4.13200  -0.08430    55    56    70    52
 C    -0.51580  -4.41880   0.40320    56    57    55    12
 C     0.53330  -4.41890  -0.38590    57    56    11    54
 C    -2.97950  -1.86960  -2.52920    58    63    60    47
 C    -3.88130  -2.52610  -0.47660    59    69    64    60
 C    -3.08280  -2.86240  -1.57630    60    58    59    52
 C    -4.51600   0.93760  -0.96660    61    62    67    73
 C    -4.47370  -0.37880  -1.35250    62    61    64    63
 C    -3.65500  -0.67180  -2.42640    63    58    65    62
 C    -4.53860  -1.32460  -0.35510    64    59    62    76
 C    -2.91340   0.29670  -3.07200    65    66    36    63
 C    -2.96240   1.62340  -2.73050    66    65    67    41
 C    -3.82190   1.91050  -1.65960    67    81    61    66
 C    -3.82940  -1.92000   1.67320    68    69    76    72
 C    -3.52220  -2.90310   0.78470    69    70    68    59
 C    -2.45960  -3.66410   0.97840    70    69    55    90
 C    -2.91210  -0.29680   3.06440    71    95    72    74
 C    -2.95370  -1.63130   2.73320    72    71    68    91
 C    -4.54690   1.31940   0.37410    73    80    75    61
 C    -3.67440   0.66720   2.42380    74    78    75    71
 C    -4.50000   0.35950   1.35730    75    76    73    74
 C    -4.53680  -0.95390   0.98640    76    75    68    64
 C    -2.48080   3.67220  -0.96840    77    81    89    40
 C    -2.99590   1.86670   2.52930    78    79    74    85
 C    -3.09990   2.87310   1.58780    79    78    88    80
 C    -3.90030   2.52610   0.48790    80    81    73    79
 C    -3.53630   2.89720  -0.77360    81    77    67    80
 C     1.77070  -0.27890   3.55580    82    26    94    83
 C     0.58720   0.41360   3.78240    83    82    96    84
 C     0.56780   1.83060   3.45730    84    42    86    83
 C    -1.82470   1.63920   3.24010    85    95    86    78
 C    -0.69910   2.44380   3.13310    86    85    87    84
 C    -0.82070   3.54200   2.21950    87    44    86    88
 C    -1.99350   3.71400   1.41260    88    79    89    87
 C    -1.77180   4.15490   0.09040    89    38    77    88
 C    -1.61550  -3.46630   2.05640    90    12    70    91
 C    -1.77750  -2.39430   2.93540    91    90    72    92
 C    -0.57200  -1.81330   3.46680    92    91    93    96
 C     0.69590  -2.42450   3.14170    93    94    10    92
 C     1.82370  -1.62920   3.24580    94    93    82     6
 C    -1.77400   0.29130   3.56150    95    71    85    96
 C    -0.58960  -0.39470   3.78530    96    95    83    92
