    96
C96-Cs-161                                                                      
 C     2.06920   1.33600  -3.46770     1    62     4     2
 C     0.90770   0.71750  -3.92820     2     1    56     3
 C     0.90930  -0.73020  -3.92890     3     6    14     2
 C     3.17720   0.64960  -3.03730     4     5     7     1
 C     3.16990  -0.67150  -3.04010     5     4     8     6
 C     2.06550  -1.35830  -3.47480     6    16     5     3
 C     3.83620   1.33450  -2.05590     7     4    70    10
 C     3.83140  -1.34930  -2.05550     8     5    21     9
 C     4.47240  -0.72250  -0.96310     9     8    28    10
 C     4.47340   0.70690  -0.96260    10     7    12     9
 C     4.30440   0.68810   1.43900    11    12    27    96
 C     4.39150   1.41420   0.26740    12    11    13    10
 C     3.70300   2.62790   0.31100    13    69    94    12
 C    -0.29380  -1.46650  -3.76780    14    15     3    18
 C    -1.45000  -0.69870  -3.76260    15    30    14    54
 C     2.05430  -2.55190  -2.80740    16     6    21    17
 C     0.88730  -3.25080  -2.53340    17    16    24    18
 C    -0.34280  -2.73840  -3.06670    18    17    19    14
 C    -1.56960  -3.10320  -2.41650    19    20    29    18
 C    -1.46150  -3.82790  -1.21780    20    25    31    19
 C     3.15080  -2.53090  -1.95930    21    22     8    16
 C     3.10330  -3.16340  -0.78520    22    21    23    26
 C     1.98980  -3.86180  -0.45260    23    22    24    37
 C     0.90070  -3.97070  -1.30560    24    25    23    17
 C    -0.27310  -4.18460  -0.66310    25    24    20    39
 C     3.70030  -2.63190   0.31720    26    22    92    28
 C     4.30310  -0.69630   1.44020    27    28    11    90
 C     4.39210  -1.41990   0.27100    28    27    26     9
 C    -2.73060  -2.29940  -2.50390    29    30    33    19
 C    -2.63040  -1.10530  -3.18660    30    15    29    45
 C    -2.34520  -3.70060  -0.17880    31    32    20    40
 C    -3.42880  -2.94520  -0.29870    32    31    35    33
 C    -3.65800  -2.26370  -1.45730    33    32    43    29
 C    -3.32180  -1.10300   2.68570    34    88    36    48
 C    -3.91890  -2.27150   0.77640    35    32    47    36
 C    -3.23720  -2.29990   2.00060    36    34    35    42
 C     1.87060  -3.79190   0.93040    37    92    38    23
 C     0.64560  -3.86630   1.57370    38    39    37    84
 C    -0.40770  -4.15100   0.73300    39    40    38    25
 C    -1.68890  -3.81270   1.02370    40    39    31    42
 C    -0.97370  -2.68100   3.02350    41    87    42    84
 C    -2.05210  -3.08190   2.15620    42    40    36    41
 C    -4.39770  -1.15770  -1.10690    43    44    33    47
 C    -4.28380   0.01640  -1.81360    44    46    43    45
 C    -3.37370   0.01200  -2.85500    45    53    30    44
 C    -4.39430   1.18870  -1.10890    46    44    51    50
 C    -4.57020  -1.15830   0.27360    47    49    35    43
 C    -3.98580   0.01430   2.19350    48    49    34    63
 C    -4.62920   0.02170   0.97500    49    50    47    48
 C    -4.56340   1.19950   0.27140    50    49    65    46
 C    -3.64760   2.29330  -1.46760    51    57    46    52
 C    -2.71930   2.30950  -2.51660    52    53    51    60
 C    -2.61970   1.11700  -3.19830    53    54    52    45
 C    -1.44380   0.70010  -3.77230    54    53    56    15
 C    -0.33100   2.73370  -3.07130    55    61    60    56
 C    -0.28780   1.46410  -3.77240    56    54     2    55
 C    -3.41750   2.97270  -0.30550    57    58    65    51
 C    -2.32670   3.71980  -0.18780    58    57    59    82
 C    -1.44350   3.84360  -1.23060    59    66    58    60
 C    -1.55730   3.11180  -2.42260    60    59    52    55
 C     0.89650   3.24210  -2.53100    61    62    67    55
 C     2.06230   2.53230  -2.79730    62     1    70    61
 C    -3.31230   1.12860   2.68200    63    77    64    48
 C    -3.23040   2.32400   1.99290    64    63    65    81
 C    -3.91310   2.30690   0.77230    65    57    50    64
 C    -0.25630   4.19280  -0.66850    66    67    59    71
 C     0.92250   3.97010  -1.30580    67    66    68    61
 C     2.01100   3.86600  -0.45280    68    69    67    74
 C     3.11870   3.16480  -0.79530    69    70    68    13
 C     3.16410   2.52040  -1.96040    70    69     7    62
 C    -0.38560   4.16830   0.72830    71    82    73    66
 C     0.41180   3.10920   2.74040    72    73    76    80
 C     0.66650   3.87830   1.56640    73    71    74    72
 C     1.89160   3.79810   0.93060    74    94    73    68
 C     1.19530   1.13140   3.86730    75    78    93    76
 C     1.52260   2.31560   3.20700    76    75    95    72
 C    -2.30180   0.70530   3.49110    77    63    79    88
 C    -0.08060   0.70330   4.06650    78    75    79    86
 C    -1.16290   1.46340   3.70060    79    78    77    80
 C    -0.96460   2.69710   3.01210    80    79    81    72
 C    -2.04000   3.10010   2.14300    81    82    64    80
 C    -1.66970   3.83100   1.01490    82    71    58    81
 C     1.51110  -2.30330   3.21320    83    85    91    84
 C     0.40130  -3.09720   2.75060    84    38    83    41
 C     1.19330  -1.11620   3.87070    85    86    93    83
 C    -0.08500  -0.70070   4.07490    86    85    87    78
 C    -1.17450  -1.44800   3.71260    87    86    88    41
 C    -2.30970  -0.69350   3.50020    88    34    87    77
 C     3.13090  -0.00030   3.16460    89    93    96    90
 C     3.54440  -1.12590   2.52480    90    89    27    91
 C     2.76900  -2.29010   2.53030    91    92    90    83
 C     2.91500  -3.03740   1.39590    92    91    37    26
 C     1.97860   0.00460   3.82280    93    89    85    75
 C     2.92890   3.03500   1.39730    94    95    74    13
 C     2.78430   2.28640   2.53390    95    94    96    76
 C     3.55240   1.12180   2.52540    96    89    11    95
