    96
C96-Cs-89                                                                       
 C     2.16490  -3.77260   0.63900     1     2     5    54
 C     3.17310  -2.98660   1.13910     2    52     1     9
 C    -0.16320  -4.21120  -0.75680     3     4    19    55
 C     0.94940  -3.95870  -1.42060     4     3     5    24
 C     2.11460  -3.79500  -0.76030     5     4     7     1
 C    -2.21860  -3.73860  -0.20140     6    18    19    64
 C     2.91220  -3.02030  -1.56600     7     8     5    11
 C     3.91690  -2.26820  -1.04160     8     7    10     9
 C     4.06500  -2.28120   0.33280     9    31     8     2
 C     4.16590  -1.08540  -1.69430    10     8    29    13
 C     2.14150  -2.61120  -2.65730    11    24    12     7
 C     2.29910  -1.37360  -3.25740    12    11    13    28
 C     3.37230  -0.65190  -2.75550    13    15    12    10
 C     2.29460   1.41940  -3.23780    14    16    15    25
 C     3.37770   0.70760  -2.74420    15    13    14    33
 C     2.13640   2.64950  -2.61870    16    89    14    34
 C    -3.76360  -2.48790   0.96480    17    75    18    73
 C    -3.36510  -3.00640  -0.26750    18     6    17    20
 C    -1.36450  -3.84390  -1.27010    19     3     6    22
 C    -3.63840  -2.28810  -1.46390    20    77    18    21
 C    -2.64790  -2.29110  -2.50660    21    94    22    20
 C    -1.48860  -3.08450  -2.44590    22    19    21    23
 C    -0.25600  -2.69180  -3.08550    23    24    27    22
 C     0.91940  -3.21470  -2.56870    24    11     4    23
 C     1.14580   0.75090  -3.76320    25    14    96    28
 C    -1.27580  -0.67720  -3.73980    26    27    94    95
 C    -0.11190  -1.41750  -3.71930    27    26    23    28
 C     1.14480  -0.70990  -3.77490    28    12    27    25
 C     4.63490   0.01890  -1.01430    29    33    10    30
 C     4.80720   0.00830   0.36570    30    31    32    29
 C     4.48350  -1.16760   1.01860    31     9    39    30
 C     4.47620   1.18590   1.01990    32    36    37    30
 C     4.17730   1.13320  -1.68340    33    35    29    15
 C     2.91020   3.06840  -1.53150    34    35    48    16
 C     3.92010   2.30700  -1.02550    35    34    33    36
 C     4.05920   2.31510   0.34960    36    32    35    47
 C     3.82850   1.17620   2.23950    37    38    32    41
 C     3.49010  -0.00240   2.85610    38    40    37    39
 C     3.83140  -1.17940   2.23600    39    38    31    52
 C     2.31540  -0.00440   3.54900    40    38    46    50
 C     3.00130   2.29280   2.30700    41    47    37    45
 C    -0.18560   4.19620   0.63480    42    65    93    43
 C     0.93810   3.89570   1.39910    43    42    49    44
 C     0.70880   3.11140   2.58840    44    45    43    67
 C     1.79450   2.29990   3.01140    45    46    41    44
 C     1.50360   1.10590   3.64960    46    69    40    45
 C     3.17120   3.01520   1.15810    47    41    49    36
 C     2.11030   3.84730  -0.72830    48    90    34    49
 C     2.16020   3.80120   0.66920    49    47    48    43
 C     1.51200  -1.12760   3.64180    50    56    40    51
 C     1.80020  -2.32220   3.00140    51    50    52    53
 C     3.00870  -2.29410   2.30680    52     2    39    51
 C     0.71680  -3.12910   2.56940    53    51    54    61
 C     0.94510  -3.89610   1.36730    54    55     1    53
 C    -0.18230  -4.19510   0.61510    55    64     3    54
 C     0.23250  -0.70640   3.88460    56    50    60    69
 C    -3.12330   1.33420   2.78410    57    71    70    58
 C    -2.09220   0.71470   3.49120    58    57    68    59
 C    -2.08920  -0.74090   3.48800    59    62    60    58
 C    -0.87600  -1.47400   3.59810    60    56    59    61
 C    -0.64640  -2.73790   2.91690    61    63    60    53
 C    -3.12000  -1.36110   2.78010    62    72    73    59
 C    -1.73010  -3.20610   2.12240    63    73    64    61
 C    -1.45270  -3.89490   0.96440    64    55    63     6
 C    -1.45770   3.87970   0.98310    65    42    66    82
 C    -1.73830   3.17700   2.13670    66    70    65    67
 C    -0.65270   2.70990   2.93050    67    66    68    44
 C    -0.88090   1.44460   3.60780    68    69    58    67
 C     0.22850   0.68820   3.89520    69    46    68    56
 C    -2.93810   2.50980   2.09280    70    66    57    87
 C    -4.12450   0.65900   2.15030    71    72    79    57
 C    -4.12230  -0.68420   2.14830    72    71    75    62
 C    -2.92740  -2.53640   2.09030    73    63    62    17
 C    -4.87560  -0.69180  -0.08050    74    75    77    81
 C    -4.51980  -1.36500   1.03770    75    74    17    72
 C    -4.18770   0.00980  -2.03080    76    78    77    80
 C    -4.41250  -1.12460  -1.29720    77    76    74    20
 C    -3.22150   0.01430  -2.95240    78    76    94    83
 C    -4.52320   1.34800   1.04350    79    87    81    71
 C    -4.42350   1.14560  -1.29610    80    81    76    85
 C    -4.87440   0.68500  -0.08730    81    79    80    74
 C    -2.23450   3.74870  -0.18370    82    86    92    65
 C    -2.48040   1.13450  -3.20590    83    78    95    84
 C    -2.65820   2.32030  -2.48610    84    83    91    85
 C    -3.65200   2.30950  -1.44680    85    80    86    84
 C    -3.37990   3.01750  -0.24440    86    82    87    85
 C    -3.78180   2.48190   0.97300    87    79    86    70
 C    -0.25890   2.72200  -3.05430    88    89    96    91
 C     0.91380   3.24880  -2.52580    89    16    90    88
 C     0.94440   4.00860  -1.38690    90    93    48    89
 C    -1.49670   3.11210  -2.41400    91    92    84    88
 C    -1.37030   3.87090  -1.24000    92    93    82    91
 C    -0.17560   4.24380  -0.73740    93    90    92    42
 C    -2.48410  -1.09940  -3.21470    94    78    26    21
 C    -1.27330   0.71280  -3.73660    95    96    83    26
 C    -0.11490   1.45450  -3.69960    96    95    88    25
