    96
C96-C1-47                                                                       
 C     4.35000   0.91410  -1.72180     1     3     2    15
 C     4.21620   2.08300  -1.02700     2     4     6     1
 C     4.71780  -0.21000  -1.07840     3     1    14    58
 C     4.40990   2.10500   0.31480     4     2    10    59
 C     1.14180   3.80010  -1.35640     5     7    94    17
 C     3.20540   2.79240  -1.58850     6     2     7    16
 C     2.37710   3.60960  -0.82320     7     5     6     8
 C     2.50100   3.62130   0.58460     8    10     7     9
 C     1.29770   3.76280   1.36190     9    11    93     8
 C     3.54760   2.83360   1.09300    10    65     4     8
 C     1.25830   3.01450   2.53690    11    64    90     9
 C     3.24240  -1.52390  -2.50360    12    14    23    13
 C     2.80900  -0.30360  -3.16540    13    15    20    12
 C     4.16830  -1.40130  -1.44940    14     3    43    12
 C     3.40490   0.87540  -2.71390    15     1    16    13
 C     2.72250   2.06850  -2.68310    16    18    15     6
 C     0.70110   3.15590  -2.51000    17    36    18     5
 C     1.44090   2.18640  -3.15740    18    16    17    19
 C     0.76070   1.07190  -3.72530    19    18    20    38
 C     1.48910  -0.17390  -3.70900    20    21    13    19
 C     0.71600  -1.31230  -3.68260    21    20    22    40
 C     1.14600  -2.47870  -3.08520    22    25    21    23
 C     2.36400  -2.62320  -2.42100    23    22    12    24
 C     2.36370  -3.48820  -1.27290    24    27    42    23
 C     0.00540  -3.14030  -2.72900    25    26    28    22
 C     0.00630  -3.93690  -1.66890    26    25    27    29
 C     1.14250  -4.09130  -0.95300    27    26    44    24
 C    -1.11250  -2.44620  -3.06570    28    25    40    31
 C    -1.11950  -4.01400  -0.88900    29    26    47    30
 C    -2.31140  -3.38430  -1.20270    30    29    52    31
 C    -2.32690  -2.55990  -2.39010    31    28    34    30
 C    -3.37010   0.90690  -2.75850    32    84    41    33
 C    -2.76450  -0.27050  -3.19420    33    32    39    34
 C    -3.20840  -1.47760  -2.51570    34    35    31    33
 C    -4.17090  -1.36080  -1.50690    35    85    51    34
 C    -0.64190   3.15610  -2.50350    36    17    37    87
 C    -1.37530   2.18980  -3.15570    37    41    36    38
 C    -0.69770   1.07780  -3.72890    38    37    39    19
 C    -1.43840  -0.15670  -3.71820    39    40    33    38
 C    -0.67380  -1.29570  -3.68690    40    39    28    21
 C    -2.66190   2.08450  -2.69050    41    37    32    89
 C     3.20080  -3.18870  -0.17990    42    43    46    24
 C     4.10550  -2.17540  -0.29750    43    42    14    57
 C     0.69480  -4.28370   0.32080    44    45    27    47
 C     1.45240  -3.86330   1.32740    45    44    46    48
 C     2.68860  -3.35530   1.11040    46    45    55    42
 C    -0.66520  -4.20920   0.39550    47    44    29    50
 C     0.86970  -3.28110   2.41340    48    45    66    49
 C    -0.50720  -3.16640   2.54540    49    48    68    50
 C    -1.34360  -3.70430   1.49470    50    47    53    49
 C    -4.12600  -2.11960  -0.33570    51    80    52    35
 C    -3.14730  -3.08220  -0.10410    52    51    30    53
 C    -2.62920  -3.20740   1.25000    53    54    50    52
 C    -3.10210  -2.27800   2.16880    54    81    53    67
 C     2.95170  -2.47590   2.14620    55    56    46    66
 C     3.85050  -1.45280   2.02250    56    55    57    61
 C     4.50110  -1.37210   0.77770    57    58    43    56
 C     4.93330  -0.18900   0.27500    58    59    57     3
 C     4.75410   0.95310   0.97730    59    58    62     4
 C     2.33690  -0.16620   3.47940    60    63    70    61
 C     3.57330  -0.26040   2.73830    61    62    56    60
 C     4.08360   0.92520   2.17140    62    65    59    61
 C     1.75280   1.09770   3.54770    63    64    72    60
 C     2.27490   2.19110   2.92140    64    65    11    63
 C     3.41040   2.11380   2.24930    65    64    62    10
 C     1.79310  -2.39450   2.91620    66    48    70    55
 C    -2.25050  -1.68730   3.10810    67    68    74    54
 C    -0.93700  -2.04930   3.30580    68    67    49    69
 C    -0.00700  -1.04790   3.77420    69    70    68    71
 C     1.40830  -1.23980   3.57970    70    66    60    69
 C    -0.51600   0.30550   3.85230    71    72    75    69
 C     0.40530   1.31430   3.68440    72    63    71    90
 C    -3.86640  -0.25410   2.58540    73    76    74    81
 C    -2.71410  -0.39580   3.29450    74    73    67    75
 C    -1.85180   0.65960   3.56360    75    74    71    78
 C    -4.22290   0.93530   2.06640    76    73    82    77
 C    -3.36440   1.99980   2.21660    77    76    95    78
 C    -2.18870   1.93690   2.96020    78    77    91    75
 C    -5.05610  -0.14400   0.14120    79    85    80    82
 C    -4.66400  -1.34100   0.66210    80    81    79    51
 C    -4.10090  -1.40380   1.88910    81    80    54    73
 C    -4.85140   1.01100   0.86230    82    86    76    79
 C    -4.18530   2.11950  -1.07830    83    89    86    84
 C    -4.34620   0.96090  -1.79980    84    85    32    83
 C    -4.76490  -0.16240  -1.18880    85    84    79    35
 C    -4.39470   2.13910   0.26210    86    83    82    95
 C    -1.07370   3.79000  -1.34220    87    88    94    36
 C    -2.30210   3.58360  -0.81000    88    87    89    96
 C    -3.14690   2.80920  -1.59710    89    83    88    41
 C     0.09090   2.53190   3.06790    90    11    91    72
 C    -1.16330   2.84520   2.60010    91    90    78    92
 C    -1.22910   3.66130   1.40410    92    96    93    91
 C     0.02680   4.03380   0.79120    93    94     9    92
 C     0.02910   4.08750  -0.60100    94    87     5    93
 C    -3.48030   2.78140   1.08020    95    77    86    96
 C    -2.41520   3.53790   0.60840    96    95    88    92
