    96
C96-C1-107                                                                      
 C     4.37370   0.02700   1.64990     1     6     2    53
 C     4.19360  -1.33750   1.55360     2     3     1     9
 C     3.24620  -1.84160   2.42050     3     4     2    52
 C     2.52930  -2.95920   2.13520     4     5     3    26
 C     2.67630  -3.56020   0.94250     5     4    13    10
 C     4.76420   0.76950   0.58000     6     1    66     7
 C     4.81680   0.19690  -0.66240     7     8    96     6
 C     4.53720  -1.11770  -0.80980     8     7     9    19
 C     4.30520  -1.94890   0.26950     9    10     8     2
 C     3.49600  -3.02050  -0.00320    10     5     9    21
 C    -0.68840  -4.35390   0.17840    11    12    27    16
 C     0.36930  -4.23000   1.02640    12    11    13    25
 C     1.59940  -4.14480   0.38170    13     5    12    14
 C     1.72400  -3.94420  -0.99100    14    15    21    13
 C     0.64050  -3.87700  -1.80240    15    14    16    23
 C    -0.56150  -4.22140  -1.20190    16    18    15    11
 C    -1.77880  -2.93610  -2.67290    17    18    45    24
 C    -1.75510  -3.79720  -1.64350    18    16    17    33
 C     3.80110  -1.24480  -2.00600    19    20    83     8
 C     2.89960  -2.25200  -2.23590    20    19    21    22
 C     2.84660  -3.20350  -1.21870    21    14    10    20
 C     1.74110  -2.00020  -3.04090    22    23    20    86
 C     0.64080  -2.89310  -2.84400    23    24    22    15
 C    -0.61310  -2.45250  -3.22020    24    17    91    23
 C     0.16890  -3.54220   2.25980    25    26    29    12
 C     1.30010  -2.90150   2.74210    26     4    38    25
 C    -1.95230  -3.95710   0.52770    27    11    33    28
 C    -2.19500  -3.29960   1.73530    28    30    27    29
 C    -1.10160  -2.99740   2.60640    29    25    28    36
 C    -3.29630  -2.46720   1.68430    30    34    28    31
 C    -4.05340  -2.24410   0.52840    31    41    32    30
 C    -3.69540  -2.77500  -0.69670    32    33    31    46
 C    -2.66220  -3.67470  -0.63370    33    18    32    27
 C    -3.38340  -1.33990   2.45740    34    30    35    42
 C    -2.32220  -0.96360   3.27290    35    39    34    36
 C    -1.15310  -1.75450   3.37510    36    35    37    29
 C     0.07840  -1.06920   3.71560    37    38    49    36
 C     1.25520  -1.70570   3.42070    38    37    26    52
 C    -2.22840   0.40360   3.44510    39    35    44    48
 C    -4.74900  -0.21260  -0.45240    40    41    63    47
 C    -4.59510  -0.99780   0.64670    41    40    31    42
 C    -4.22820  -0.42850   1.83250    42    41    43    34
 C    -4.09910   0.93670   1.96840    43    42    44    64
 C    -3.08390   1.30710   2.84060    44    55    39    43
 C    -2.75180  -1.99910  -2.75400    45    17    77    46
 C    -3.77790  -1.91690  -1.82190    46    47    45    32
 C    -4.28220  -0.64940  -1.66660    47    40    46    80
 C    -1.01590   1.03970   3.66310    48    49    56    39
 C     0.17230   0.37220   3.80100    49    48    37    50
 C     1.37950   1.11510   3.48120    50    51    49    60
 C     2.53590   0.33660   3.22890    51    53    52    50
 C     2.44590  -1.04270   3.22220    52    38    51     3
 C     3.55700   0.84190   2.44780    53    62    51     1
 C    -2.64860   3.27390   1.68310    54    55    57    65
 C    -2.37920   2.45910   2.70640    55    54    44    56
 C    -1.10110   2.32720   3.18080    56    55    48    59
 C    -1.61660   3.97500   1.15030    57    54    71    58
 C    -0.28470   3.93970   1.62720    58    68    57    59
 C     0.00240   3.04280   2.70860    59    56    60    58
 C     1.28950   2.45990   2.88200    60    59    61    50
 C     2.34230   2.91030   2.00970    61    62    60    69
 C     3.46570   2.07970   1.86050    62    53    66    61
 C    -4.59430   1.14000  -0.36190    63    40    64    74
 C    -4.32570   1.77260   0.84760    64    65    63    43
 C    -3.58160   2.92170   0.73340    65    64    54    76
 C     4.25030   2.02130   0.72790    66    67     6    62
 C     3.87420   2.72960  -0.34330    67    66    70    95
 C     0.72620   4.21830   0.68790    68    69    58    73
 C     2.04160   3.76540   0.89030    69    68    70    61
 C     2.82930   3.56910  -0.27120    70    67    93    69
 C    -1.95500   4.07600  -0.17580    71    72    76    57
 C    -0.98470   4.16930  -1.05830    72    71    73    81
 C     0.29580   4.32430  -0.66050    73    72    92    68
 C    -4.00130   1.55410  -1.56150    74    80    75    63
 C    -3.19960   2.66100  -1.66280    75    74    76    82
 C    -3.08570   3.38410  -0.46720    76    71    65    75
 C    -2.19070  -0.89910  -3.38600    77    79    91    45
 C    -1.74240   1.45090  -3.31480    78    79    82    89
 C    -2.66150   0.37670  -3.19100    79    77    80    78
 C    -3.76960   0.45280  -2.34020    80    74    47    79
 C    -1.03440   3.45830  -2.24340    81    87    82    72
 C    -2.08670   2.63270  -2.56290    82    81    75    78
 C     3.61430   0.01250  -2.53560    83    19    96    85
 C     2.04770   1.74310  -3.15350    84    94    88    85
 C     2.45280   0.37580  -3.25760    85    83    86    84
 C     1.48430  -0.63410  -3.54050    86    85    90    22
 C     0.25080   3.24300  -2.61850    87    81    92    88
 C     0.67950   2.10940  -3.32550    88    87    89    84
 C    -0.32970   1.16160  -3.65750    89    88    90    78
 C     0.11970  -0.20950  -3.79560    90    91    89    86
 C    -0.86470  -1.17400  -3.66450    91    24    77    90
 C     1.04330   3.88930  -1.70120    92    93    73    87
 C     2.27980   3.54760  -1.53170    93    92    94    70
 C     2.83380   2.55990  -2.29110    94    95    93    84
 C     3.90040   2.12730  -1.58680    95    96    94    67
 C     4.32010   0.87610  -1.72730    96    95     7    83
