    96
C96-C1-78                                                                       
 C     0.41430   1.36000  -3.80610     1     2     8    59
 C     1.58870   0.69830  -3.77250     2     1     3     7
 C     2.60670   1.41740  -3.16560     3     4     2    58
 C     3.66390   0.80270  -2.58850     4     5     3    26
 C     3.71450  -0.53760  -2.58790     5     4    12     6
 C     2.67650  -1.27510  -3.13420     6    23     5     7
 C     1.55060  -0.72700  -3.73520     7     6     2    19
 C    -0.76140   0.70020  -3.92470     8     1    70     9
 C    -0.90880  -0.70410  -3.85910     9     8    18    19
 C     4.52680  -1.14810   0.78370    10    27    16    11
 C     4.77520  -0.49400  -0.42970    11    10    12    25
 C     4.27430  -1.19380  -1.53500    12     5    13    11
 C     3.61670  -2.39690  -1.46080    13    15    12    23
 C     2.33010  -3.77100  -0.13050    14    15    44    24
 C     3.45320  -3.02310  -0.25700    15    14    13    16
 C     3.88800  -2.36050   0.87080    16    10    15    43
 C    -3.15690  -0.17260  -3.13170    17    91    71    18
 C    -2.16980  -1.16120  -3.40270    18     9    17    94
 C     0.29330  -1.45020  -3.68620    19     9     7    21
 C    -1.06440  -3.11510  -2.37210    20    94    95    21
 C     0.22010  -2.69930  -2.93830    21    22    19    20
 C     1.43590  -3.15330  -2.31810    22    24    23    21
 C     2.62150  -2.44800  -2.44430    23     6    22    13
 C     1.36660  -3.87550  -1.14150    24    96    22    14
 C     4.70130   0.92030  -0.43450    25    29    26    11
 C     4.13080   1.54160  -1.54120    26     4    25    49
 C     4.19630  -0.46080   1.92150    27    28    10    30
 C     4.15990   0.86930   1.90090    28    27    35    29
 C     4.41260   1.58120   0.74470    29    28    47    25
 C     3.28410  -1.17930   2.67720    30    43    27    33
 C    -1.34080   1.49690   3.61370    31    85    53    36
 C     1.05930   1.52350   3.68450    32    34    52    36
 C     2.26310  -0.57890   3.45850    33    30    34    40
 C     2.26970   0.84410   3.46880    34    32    35    33
 C     3.23650   1.50530   2.66940    35    28    46    34
 C    -0.15260   0.82330   3.93490    36    31    32    41
 C    -1.50940  -1.20050   3.58030    37    42    84    41
 C    -0.30010  -3.09230   2.70850    38    42    90    39
 C     0.96610  -2.61520   3.02500    39    38    45    40
 C     1.03600  -1.31630   3.64870    40    39    33    41
 C    -0.21210  -0.60710   3.91020    41    36    40    37
 C    -1.47700  -2.44540   2.97380    42    38    37    80
 C     3.14500  -2.38800   2.05270    43    45    30    16
 C     1.67750  -3.88750   1.07290    44    86    14    45
 C     2.00980  -3.12570   2.19780    45    43    44    39
 C     2.99690   2.67650   2.00280    46    50    47    35
 C     3.63540   2.72280   0.80210    47    46    29    48
 C     3.00770   3.31560  -0.30420    48    49    47    55
 C     3.31710   2.67060  -1.47860    49    58    48    26
 C     1.83910   3.27920   2.15640    50    46    52    54
 C    -0.24380   3.28620   2.60410    51    53    52    60
 C     0.92600   2.77090   3.02070    52    51    50    32
 C    -1.35740   2.70260   2.93870    53    51    69    31
 C     1.20560   3.92910   1.11340    54    60    50    55
 C     1.71210   3.91470  -0.17390    55    54    48    56
 C     0.71390   3.87780  -1.21420    56    57    55    63
 C     1.14320   3.19940  -2.39270    57    59    58    56
 C     2.39060   2.61350  -2.48430    58    49    57     3
 C     0.18860   2.58240  -3.15490    59    68    57     1
 C    -0.12480   3.94350   1.39850    60    54    51    62
 C    -2.41950   3.44520   0.88520    61    65    69    62
 C    -1.15570   3.97050   0.45880    62    60    63    61
 C    -0.73130   3.92460  -0.90940    63    62    67    56
 C    -4.26730   1.93460   0.41820    64    74    79    65
 C    -3.36010   2.93810  -0.03870    65    61    66    64
 C    -2.98470   2.89460  -1.40700    66    65    72    67
 C    -1.68800   3.35040  -1.81320    67    68    66    63
 C    -1.13490   2.67990  -2.91200    68    59    70    67
 C    -2.45070   2.83260   2.16410    69    53    77    61
 C    -1.71010   1.58100  -3.48970    70    71     8    68
 C    -2.88580   1.17080  -3.11940    71    70    72    17
 C    -3.57990   1.83300  -2.14520    72    75    71    66
 C    -4.91250  -0.21180   0.35610    73    76    78    74
 C    -4.79830   0.95520  -0.36730    74    75    64    73
 C    -4.43970   0.89800  -1.65690    75    74    72    91
 C    -4.64870  -1.40040  -0.23840    76    81    73    92
 C    -3.23610   1.78150   2.49730    77    79    69    85
 C    -4.45840   0.01430   1.62890    78    79    73    83
 C    -4.15150   1.34580   1.66200    79    77    78    64
 C    -2.44030  -2.88920   2.06860    80    82    89    42
 C    -3.98390  -2.36770   0.42660    81    76    87    82
 C    -3.55090  -2.17390   1.74820    82    80    81    83
 C    -3.73090  -0.93170   2.38740    83    82    78    84
 C    -2.69890  -0.45380   3.27580    84    85    37    83
 C    -2.53590   0.91550   3.32110    85    31    84    77
 C     0.40980  -4.20710   0.77460    86    90    44    96
 C    -3.22790  -3.06960  -0.51860    87    88    93    81
 C    -2.11520  -3.76030  -0.19080    88    87    89    95
 C    -1.80080  -3.72150   1.17280    89    90    80    88
 C    -0.55520  -3.88940   1.61650    90    86    89    38
 C    -4.17680  -0.31590  -2.24890    91    92    17    75
 C    -4.26520  -1.45450  -1.55300    92    91    76    93
 C    -3.33770  -2.44590  -1.74050    93    92    87    94
 C    -2.25520  -2.37120  -2.65130    94    93    18    20
 C    -1.05210  -3.87600  -1.13270    95    96    88    20
 C     0.17670  -4.18440  -0.58240    96    24    86    95
