    96
C96-C1-125                                                                      
 C     0.70930   4.13730   1.00310     1     7    58     2
 C     0.58960   4.22630  -0.38160     2     1    56     3
 C    -0.73540   4.03790  -0.90830     3     4     2     9
 C    -0.79760   3.46600  -2.21600     4     6     5     3
 C     0.36620   3.02670  -2.83770     5    57     4    18
 C    -1.91520   2.77650  -2.61370     6    12     4    16
 C    -0.33920   3.86110   1.81830     7     1     8    59
 C    -1.64460   3.69760   1.39160     8     7    14     9
 C    -1.88280   3.81290  -0.02370     9    11     8     3
 C    -3.83580   2.35780   0.32690    10    13    32    11
 C    -3.02810   3.11980  -0.52480    11    12    10     9
 C    -3.02430   2.63010  -1.81990    12     6    11    31
 C    -3.52370   2.20880   1.66110    13    14    10    96
 C    -2.44540   2.84750   2.20260    14    13    15     8
 C    -1.83540   2.11920   3.23200    15    61    91    14
 C    -1.86410   1.67740  -3.46300    16    22    17     6
 C    -0.67030   1.13650  -3.91700    17    18    16    25
 C     0.42650   1.87930  -3.62860    18    17    19     5
 C     1.67460   1.33310  -3.52690    19    18    49    21
 C     0.74960  -0.88910  -3.82200    20    25    26    21
 C     1.91560  -0.04320  -3.62560    21    19    35    20
 C    -2.94580   0.91780  -3.20400    22    23    16    31
 C    -2.85940  -0.41530  -3.33390    23    22    28    24
 C    -1.66460  -0.99820  -3.69640    24    44    23    25
 C    -0.52290  -0.27050  -4.01620    25    24    17    20
 C     0.75840  -2.22260  -3.25410    26    27    45    20
 C     1.92780  -2.61950  -2.64630    27    26    47    34
 C    -3.57090  -1.22700  -2.51210    28    23    86    30
 C    -4.45530  -1.49650  -0.38320    29    90    30    84
 C    -4.40140  -0.70650  -1.51960    30    29    28    33
 C    -3.69930   1.47810  -2.21060    31    22    33    12
 C    -4.52230   1.20840  -0.06430    32    88    33    10
 C    -4.44890   0.70140  -1.35070    33    31    32    30
 C     3.05950  -1.81700  -2.54110    34    37    27    35
 C     3.08940  -0.48820  -2.96260    35    34    21    36
 C     3.92150   0.41050  -2.19300    36    48    39    35
 C     3.78110  -2.27000  -1.47190    37    38    40    34
 C     4.50630  -1.42240  -0.71790    38    37    39    41
 C     4.57940  -0.12070  -1.06390    39    38    50    36
 C     3.09600  -3.28130  -0.88800    40    37    43    47
 C     4.47640  -1.52700   0.65270    41    42    53    38
 C     3.74920  -2.48360   1.22930    42    41    43    62
 C     3.10220  -3.40440   0.46270    43    82    40    42
 C    -1.63450  -2.23650  -3.09730    44    24    45    86
 C    -0.44350  -2.88160  -2.80700    45    44    26    78
 C     0.79020  -4.03560  -1.01450    46    47    78    81
 C     1.94720  -3.52580  -1.59450    47    40    27    46
 C     3.54450   1.76340  -2.08200    48    49    52    36
 C     2.43440   2.19230  -2.76330    49    48    19    57
 C     4.68700   0.56400   0.13080    50    51    53    39
 C     4.27910   1.81720   0.19930    51    50    66    52
 C     3.75730   2.45920  -0.89400    52    51    55    48
 C     4.50320  -0.28750   1.20240    53    41    50    64
 C     2.91490   3.31480   0.92670    54    58    55    66
 C     2.90060   3.43190  -0.43130    55    54    52    56
 C     1.75960   3.84780  -1.10450    56    57    55     2
 C     1.59880   3.21600  -2.31090    57     5    56    49
 C     1.84680   3.64940   1.62020    58    54    60     1
 C     0.19730   3.15020   2.87980    59    61    60     7
 C     1.52430   2.94420   2.73910    60    59    58    69
 C    -0.52620   2.25410   3.51750    61    59    15    70
 C     2.99280  -2.21340   2.34050    62    42    71    63
 C     2.92050  -0.94820   2.94820    63    62    67    64
 C     3.75230   0.07700   2.35860    64    65    53    63
 C     3.36180   1.43240   2.44160    65    69    64    66
 C     3.69430   2.27290   1.34600    66    51    54    65
 C     1.68600  -0.62970   3.62560    67    68    63    74
 C     1.38090   0.75820   3.76200    68    70    67    69
 C     2.19800   1.77120   3.16520    69    65    60    68
 C     0.02850   1.07320   3.94400    70    76    61    68
 C     1.92880  -3.08250   2.28940    71    73    62    82
 C    -0.34050  -3.44000   2.35130    72    92    73    80
 C     0.75060  -2.81040   2.92650    73    71    72    74
 C     0.56690  -1.59540   3.64380    74    73    75    67
 C    -0.81090  -1.17260   3.81030    75    76    93    74
 C    -1.01410   0.18170   3.97430    76    70    75    91
 C    -1.66210  -3.83300  -0.86680    77    79    85    78
 C    -0.45680  -3.76500  -1.65270    78    46    77    45
 C    -1.49110  -3.98620   0.51780    79    80    87    77
 C    -0.27640  -4.09540   1.11010    80    81    79    72
 C     0.86890  -4.20800   0.40420    81    80    82    46
 C     1.99590  -3.80980   1.09130    82    43    81    71
 C    -3.42460  -2.78430   1.06780    83    87    89    84
 C    -3.71890  -2.66610  -0.26540    84    83    29    85
 C    -2.83960  -3.14680  -1.24290    85    86    84    77
 C    -2.80670  -2.37920  -2.37270    86    85    44    28
 C    -2.32590  -3.41940   1.43880    87    83    79    92
 C    -4.58850   0.38780   1.02840    88    90    96    32
 C    -3.87290  -1.71640   1.77930    89    83    90    94
 C    -4.55730  -0.94960   0.87780    90    88    89    29
 C    -2.18320   0.83260   3.58620    91    95    15    76
 C    -1.61280  -3.00370   2.53280    92    72    87    93
 C    -1.94210  -1.87060   3.26580    93    92    75    94
 C    -3.15460  -1.19620   2.87860    94    95    89    93
 C    -3.25350   0.19740   3.02880    95    91    96    94
 C    -3.95920   0.95870   2.08980    96    88    13    95
