    96
C96-D3d-3                                                                       
 C    -3.67080  -2.87670  -0.66860     1     2    16    12
 C    -4.46890  -2.41220   0.31210     2     1     3    15
 C    -3.88570  -2.33800   1.55700     3    63     2     7
 C    -2.41170  -0.89740   3.27430     4    64    73     6
 C    -0.40800  -2.13110   2.90210     5     6     9    76
 C    -1.80800  -2.06140   2.80900     6     4     5     7
 C    -2.56350  -2.77350   1.83640     7     3    11     6
 C     1.62650  -2.93930   1.94360     8     9    77    32
 C     0.26780  -2.99620   1.98560     9     8    10     5
 C    -0.40840  -3.49710   0.83130    10    11     9    31
 C    -1.80680  -3.38380   0.79940    11    12    10     7
 C    -2.41270  -3.35310  -0.44790    12     1    25    11
 C    -5.34340  -0.75880  -1.14120    13    35    15    14
 C    -4.46100  -1.21410  -2.10990    14    16    23    13
 C    -5.34590  -1.36650   0.10170    15    44     2    13
 C    -3.66110  -2.27200  -1.88880    16    14    17     1
 C    -2.40990  -2.38100  -2.40570    17    16    25    21
 C     0.26610  -0.22600  -3.58480    18    19    20    38
 C     1.62460  -0.22450  -3.51320    19    18    30    60
 C    -0.41060  -1.44910  -3.29270    20    21    18    29
 C    -1.80910  -1.40050  -3.18460    21    17    20    22
 C    -2.56460  -0.20190  -3.31450    22    37    23    21
 C    -3.88610  -0.16510  -2.79130    23    36    14    22
 C    -0.28890  -3.22200  -1.60550    24    25    29    31
 C    -1.64330  -3.15680  -1.57050    25    24    17    12
 C     3.86670  -2.51490  -1.24630    26    96    91    27
 C     2.54090  -2.97720  -1.48590    27    28    26    33
 C     1.78560  -2.38990  -2.54050    28    30    29    27
 C     0.38890  -2.47720  -2.61650    29    28    24    20
 C     2.40040  -1.30060  -3.14220    30    92    19    28
 C     0.38940  -3.57560  -0.39870    31    33    24    10
 C     2.39810  -3.29150   0.85700    32    95     8    33
 C     1.78690  -3.46230  -0.37670    33    32    31    27
 C    -3.66980   2.02670  -2.15090    34    36    40    39
 C    -5.33600   0.61330  -1.23650    35    36    13    42
 C    -4.47160   0.94940  -2.24960    36    34    23    35
 C    -1.80790   1.00090  -3.32830    37    39    38    22
 C    -0.40900   1.02690  -3.44200    38    37    18    59
 C    -2.41340   2.06600  -2.67680    39    34    53    37
 C    -3.66010   2.77370  -1.01720    40    41    34    45
 C    -4.45030   2.42750   0.01910    41    40    51    42
 C    -5.33220   1.36200  -0.06900    42    43    41    35
 C    -5.33740   0.76410   1.16750    43    42    62    44
 C    -5.34000  -0.62010   1.25130    44    15    63    43
 C    -2.41090   3.27940  -0.84710    45    40    53    49
 C     0.27040   3.20870   1.60640    46    47    67    48
 C     1.62770   3.13760   1.57010    47    46    69    58
 C    -0.40560   3.57010   0.39960    48    49    46    57
 C    -1.80450   3.45600   0.38920    49    45    48    50
 C    -2.55960   2.97050   1.49480    50    66    51    49
 C    -3.88290   2.49960   1.26610    51    41    62    50
 C    -0.28950   2.99760  -1.98160    52    53    57    59
 C    -1.64460   2.93760  -1.94080    53    52    39    45
 C     3.86170   2.32090  -1.55420    54    87    82    55
 C     2.53920   2.76570  -1.83250    55    54    56    61
 C     1.78550   3.38380  -0.79540    56    58    57    55
 C     0.39020   3.49780  -0.83070    57    56    52    48
 C     2.39940   3.35180   0.44790    58    83    47    56
 C     0.38810   2.13000  -2.89380    59    61    52    38
 C     2.39280   0.89480  -3.27020    60    85    19    61
 C     1.78460   2.05140  -2.80620    61    60    59    55
 C    -4.46920   1.47750   1.97120    62    65    51    43
 C    -4.46540  -1.22890   2.12940    63    64     3    44
 C    -3.66990  -0.49710   2.93200    64    63    65     4
 C    -3.66860   0.86130   2.86040    65    62    68    64
 C    -1.80420   2.38200   2.54730    66    68    67    50
 C    -0.40500   2.46440   2.62230    67    66    46    71
 C    -2.41130   1.28890   3.15320    68    65    73    66
 C     2.39510   2.36610   2.41380    69    78    47    70
 C     1.78480   1.39300   3.19080    70    69    71    74
 C     0.38830   1.43450   3.30420    71    70    72    67
 C    -0.28770   0.21330   3.60320    72    73    76    71
 C    -1.64240   0.21380   3.53400    73    72    68     4
 C     2.54100   0.19350   3.31820    74    80    75    70
 C     1.78690  -1.01250   3.33790    75    77    76    74
 C     0.39100  -1.03350   3.45660    76    75    72     5
 C     2.40010  -2.07660   2.69000    77    94     8    75
 C     3.64520   2.26580   1.88320    78    79    83    69
 C     4.43860   1.19900   2.10580    79    78    80    84
 C     3.86160   0.15560   2.79300    80    93    79    74
 C     5.31900   1.36080  -0.08940    81    86    84    82
 C     4.44330   2.41400  -0.30880    82    83    54    81
 C     3.65330   2.88000   0.67190    83    82    78    58
 C     5.31720   0.73620   1.14530    84    88    79    81
 C     3.64780   0.48640  -2.92840    85    87    92    60
 C     5.31230   0.60830  -1.24150    86    87    81    90
 C     4.44400   1.21490  -2.11900    87    85    54    86
 C     5.31560  -0.63040   1.24220    88    84    93    89
 C     5.31810  -1.38160   0.07550    89    90    96    88
 C     5.31400  -0.77700  -1.15680    90    89    91    86
 C     4.44740  -1.49010  -1.96010    91    92    26    90
 C     3.65690  -0.87170  -2.85420    92    91    30    85
 C     4.44680  -0.96880   2.26080    93    94    80    88
 C     3.65410  -2.05060   2.16380    94    93    95    77
 C     3.65750  -2.80080   1.03140    95    96    94    32
 C     4.44620  -2.45620  -0.00110    96    95    26    89
