    96
C96-C1-32                                                                       
 C     3.97880  -2.69560   0.16210     1     2     6    58
 C     4.28420  -2.00020  -0.94120     2     1     3    21
 C     4.84050  -0.77630  -0.81520     3     2     4    59
 C     4.32630  -0.03650  -1.83550     4     5     3    11
 C     4.14640   1.27240  -1.69100     5     4    10    46
 C     2.93610  -3.54110   0.15160     6     1    61    27
 C    -0.60640   3.56870  -2.27880     7    19    32     8
 C     0.68710   3.15670  -2.56320     8     7    30    17
 C     2.13870   1.23400  -3.08980     9    10    17    13
 C     3.11560   1.90250  -2.31370    10     5    31     9
 C     3.39410  -0.77060  -2.54030    11    21     4    13
 C     1.14940  -1.03590  -3.37350    12    13    15    25
 C     2.27840  -0.19670  -3.17290    13    11    12     9
 C    -1.24230  -1.12790  -3.47700    14    15    26    39
 C    -0.10180  -0.35910  -3.61210    15    14    12    16
 C    -0.28410   1.07270  -3.51170    16    17    15    18
 C     0.87110   1.87920  -3.21500    17     9    16     8
 C    -1.61630   1.57770  -3.17440    18    19    40    16
 C    -1.71490   2.80850  -2.55820    19     7    18    42
 C     2.27550  -2.86990  -2.06090    20    21    25    27
 C     3.38650  -2.03720  -1.99680    21    11     2    20
 C    -1.57450  -4.18630  -1.03470    22    91    96    23
 C    -0.26640  -4.04840  -1.56030    23    29    22    24
 C    -0.07820  -3.09650  -2.62870    24    26    25    23
 C     1.15470  -2.42310  -2.83810    25    24    20    12
 C    -1.23780  -2.44830  -3.04730    26    92    14    24
 C     2.07420  -3.76200  -0.94900    27    29     6    20
 C     0.44140  -4.37230   0.69270    28    94    63    29
 C     0.80100  -4.26780  -0.67480    29    27    23    28
 C     1.68400   3.66790  -1.68670    30    31    34     8
 C     2.84670   3.02060  -1.57030    31    30    10    45
 C    -0.92850   4.37780  -1.21730    32    33    35     7
 C     0.02300   4.67680  -0.31290    33    34    32    36
 C     1.29060   4.33430  -0.53110    34    33    30    43
 C    -2.18920   4.09440  -0.82150    35    32    38    42
 C    -0.23720   4.53340   1.01380    36    37    33    48
 C    -1.46450   4.21950   1.40020    37    36    57    38
 C    -2.49510   4.06980   0.49820    38    89    35    37
 C    -2.50190  -0.60140  -3.20280    39    84    40    14
 C    -2.73260   0.73600  -2.95300    40    39    18    87
 C    -3.70530   2.24230  -1.24590    41    42    87    88
 C    -2.72450   3.14220  -1.64670    42    35    41    19
 C     1.86530   4.01740   0.70250    43    44    48    34
 C     2.95320   3.24980   0.83080    44    43    45    52
 C     3.56650   2.91200  -0.37710    45    46    44    31
 C     4.39460   1.87980  -0.48600    46    45    47     5
 C     4.70110   1.11640   0.57900    47    59    46    53
 C     0.85810   4.00250   1.62840    48    36    43    50
 C    -0.53060   2.64320   3.02830    49    50    55    57
 C     0.78520   3.01200   2.64100    50    48    49    51
 C     1.87470   2.10110   2.77590    51    50    52    56
 C     3.03090   2.32260   1.91650    52    53    44    51
 C     3.93770   1.29730   1.73650    53    66    52    47
 C    -2.08720   0.84660   3.28960    54    67    83    55
 C    -0.77600   1.31760   3.48820    55    54    49    64
 C     1.62940   0.74770   3.30800    56    65    64    51
 C    -1.61730   3.32080   2.40290    57    37    79    49
 C     4.03230  -2.07290   1.39950    58    60    62     1
 C     4.98110  -0.19090   0.42870    59    47    60     3
 C     4.46930  -0.82250   1.51150    60    58    59    66
 C     2.43130  -3.49900   1.43340    61    63    62     6
 C     2.99590  -2.48580   2.14860    62    58    61    71
 C     1.21310  -3.85730   1.67360    63    61    28    72
 C     0.25910   0.33720   3.61530    64    55    56    69
 C     2.60850  -0.27350   3.04430    65    66    71    56
 C     3.76290   0.06350   2.30770    66    53    60    65
 C    -2.43720  -0.46820   3.16690    67    54    68    73
 C    -1.51600  -1.47710   3.28410    68    67    77    69
 C    -0.12720  -1.08320   3.55280    69    70    68    64
 C     0.88420  -2.02690   3.23180    70    72    71    69
 C     2.22530  -1.64830   3.00310    71    70    62    65
 C     0.43980  -3.20330   2.60030    72    78    63    70
 C    -3.59870  -0.55350   2.38900    73    75    82    67
 C    -4.53330  -1.36430   0.42340    74    93    80    75
 C    -3.91560  -1.66040   1.65450    75    73    76    74
 C    -3.07660  -2.77970   1.78400    76    75    95    77
 C    -1.89950  -2.68840   2.61430    77    78    68    76
 C    -0.84570  -3.50170   2.28240    78    72    77    94
 C    -2.83420   2.76090   2.16850    79    83    57    89
 C    -4.70590  -0.05030  -0.01940    80    81    86    74
 C    -4.46230   1.04500   0.75090    81    80    82    88
 C    -3.92100   0.72660   2.00410    82    83    73    81
 C    -3.06450   1.55480   2.63180    83    79    82    54
 C    -3.23930  -1.60260  -2.65310    84    92    85    39
 C    -4.18370  -1.32460  -1.72650    85    84    86    93
 C    -4.41240  -0.03350  -1.38090    86    85    80    87
 C    -3.77900   1.05190  -1.98880    87    86    41    40
 C    -4.07660   2.26170   0.15450    88    89    81    41
 C    -3.37190   3.16120   0.95850    89    38    79    88
 C    -3.55780  -3.26190  -0.54820    90    93    95    91
 C    -2.66250  -3.57290  -1.55010    91    92    22    90
 C    -2.48830  -2.71870  -2.56790    92    91    84    26
 C    -4.31190  -2.15500  -0.65430    93    90    74    85
 C    -0.82520  -4.27920   1.14010    94    96    28    78
 C    -2.98250  -3.60890   0.63770    95    96    90    76
 C    -1.84290  -4.27230   0.31770    96    94    95    22
