    96
C96-C1-139                                                                      
 C     0.94360   3.41260  -2.31250     1     7    60     2
 C     1.03110   2.40220  -3.26380     2     1    58    10
 C    -0.12930   0.40390  -4.06490     3     4    14    10
 C     1.15010  -0.19950  -4.00040     4    59     5     3
 C     1.34310  -1.52630  -3.69570     5     6    21     4
 C     0.31140  -2.30790  -3.50690     6     5    15    22
 C    -0.22920   3.81130  -1.76490     7     1    61     8
 C    -1.47220   3.30240  -2.11230     8     7    17     9
 C    -1.49210   2.23360  -3.09020     9    12     8    10
 C    -0.22090   1.77380  -3.64490    10     3     2     9
 C    -3.60360   1.56120  -2.03920    11    16    89    12
 C    -2.61320   1.33350  -3.03300    12    11    13     9
 C    -2.47880  -0.02030  -3.46160    13    14    35    12
 C    -1.23650  -0.47850  -3.94580    14    13    15     3
 C    -0.94140  -1.83780  -3.68570    15     6    31    14
 C    -3.50950   2.54830  -1.09060    16    17    11    96
 C    -2.45800   3.41910  -1.09560    17    16    18     8
 C    -2.07950   3.85060   0.18540    18    63    93    17
 C     2.63810  -2.72290  -2.02820    19    21    37    20
 C     1.45300  -3.50690  -1.75230    20    22    26    19
 C     2.50520  -1.73730  -3.02290    21     5    51    19
 C     0.34660  -3.29770  -2.55800    22    23     6    20
 C    -0.94450  -3.51120  -2.18590    23    22    31    24
 C    -1.31860  -3.91080  -0.90650    24    23    33    25
 C    -0.23890  -4.09570   0.02180    25    24    26    29
 C     1.13210  -3.94940  -0.43320    26    27    20    25
 C     2.10260  -3.67300   0.50490    27    26    47    36
 C    -1.81210  -3.37620   1.73190    28    34    29    80
 C    -0.52930  -3.80520   1.41620    29    28    46    25
 C    -2.90030  -2.25460  -2.53910    30    31    32    35
 C    -1.72520  -2.66450  -2.95170    31    30    15    23
 C    -3.40120  -2.69730  -1.35450    32    30    85    33
 C    -2.61850  -3.49720  -0.50830    33    34    32    24
 C    -2.84260  -3.24650   0.81910    34    33    28    87
 C    -3.31160  -0.97640  -2.81580    35    90    30    13
 C     3.29650  -2.99750   0.21280    36    39    37    27
 C     3.59210  -2.43380  -1.03190    37    36    19    38
 C     4.34000  -1.19550  -1.03710    38    41    50    37
 C     3.70640  -2.42240   1.38390    39    40    42    36
 C     4.38280  -1.25600   1.38360    40    39    41    43
 C     4.69640  -0.65170   0.21410    41    40    52    38
 C     2.78330  -2.67630   2.33610    42    39    45    47
 C     4.08350  -0.29170   2.31270    43    44    55    40
 C     3.12880  -0.52890   3.21930    44    43    45    64
 C     2.50290  -1.73130   3.25900    45    48    42    44
 C     0.48600  -3.39680   2.31220    46    47    29    49
 C     1.78640  -3.44340   1.83680    47    42    46    27
 C     1.24720  -1.57350   3.71330    48    45    49    73
 C     0.20170  -2.40890   3.34320    49    48    81    46
 C     4.07970  -0.23530  -2.04750    50    51    54    38
 C     3.15490  -0.53710  -3.01690    51    21    50    59
 C     4.66360   0.70310   0.49240    52    53    55    41
 C     4.38560   1.55840  -0.47790    53    52    68    54
 C     4.12450   1.12330  -1.75380    54    53    57    50
 C     4.18760   0.93980   1.76910    55    43    52    66
 C     3.05690   2.98980  -1.37840    56    60    57    68
 C     3.27340   2.04380  -2.33030    57    56    54    58
 C     2.28560   1.72190  -3.25980    58    59    57     2
 C     2.30060   0.41010  -3.61040    59    58     4    51
 C     1.92950   3.66370  -1.37470    60    56    62     1
 C     0.07980   4.25510  -0.48960    61    63    62     7
 C     1.38370   4.07070  -0.19970    62    61    60    71
 C    -0.80980   4.19690   0.46910    63    61    18    72
 C     2.24660   0.44260   3.59300    64    44    73    65
 C     2.26890   1.74540   3.06950    65    64    69    66
 C     3.31060   2.00990   2.09830    66    67    55    65
 C     3.07530   2.95250   1.07190    67    71    66    68
 C     3.66420   2.68220  -0.19190    68    53    56    67
 C     1.01780   2.43770   3.07240    69    65    70    75
 C     0.87020   3.46790   2.07920    70    72    71    69
 C     1.86800   3.68010   1.07690    71    67    62    70
 C    -0.44350   3.80650   1.73500    72    78    63    70
 C     1.08310  -0.20830   3.97320    73    74    64    48
 C    -0.14010   0.39970   4.00180    74    73    84    75
 C    -0.20020   1.79110   3.60040    75    77    74    69
 C    -2.58290   1.40360   3.19050    76    83    77    94
 C    -1.48360   2.25650   3.19550    77    78    76    75
 C    -1.57240   3.26560   2.26630    78    72    77    93
 C    -3.24330  -1.84370   2.44080    79    82    87    80
 C    -2.07010  -2.46670   2.75430    80    79    81    28
 C    -1.06890  -1.86900   3.51380    81    49    80    84
 C    -3.44730  -0.57940   2.84120    82    79    91    83
 C    -2.46520   0.08500   3.52360    83    76    82    84
 C    -1.26090  -0.48310   3.88870    84    83    74    81
 C    -4.27140  -1.71810  -0.91400    85    32    86    90
 C    -4.48780  -1.46520   0.42740    86    85    87    92
 C    -3.74870  -2.29420   1.26220    87    79    34    86
 C    -4.65860   0.86620  -0.15190    88    89    96    92
 C    -4.37370   0.57030  -1.46130    89    90    88    11
 C    -4.20970  -0.69100  -1.83790    90    89    35    85
 C    -4.17890   0.27120   2.06030    91    82    94    92
 C    -4.70720  -0.12650   0.83370    92    91    88    86
 C    -2.61660   3.35110   1.34320    93    95    18    78
 C    -3.65450   1.52560   2.29340    94    95    91    76
 C    -3.65960   2.48570   1.31720    95    93    94    96
 C    -4.14180   2.11880   0.07960    96    88    95    16
