    96
C96-C1-26                                                                       
 C    -4.54330   0.06310   1.50340     1     2     7    55
 C    -4.82550  -0.51340   0.28130     2     1     4     3
 C    -4.73400   0.30740  -0.83650     3    54    10     2
 C    -4.40340  -1.81870   0.12590     4     8     2     5
 C    -3.69350  -2.49740   1.12280     5    20     6     4
 C    -3.33460  -1.90590   2.31600     6     5     7    17
 C    -3.82930  -0.61190   2.47900     7    60     1     6
 C    -3.96690  -2.29310  -1.09050     8    12     4     9
 C    -3.83250  -1.45810  -2.19130     9    10    11     8
 C    -4.20440  -0.15110  -2.02870    10     9     3    24
 C    -2.74050  -1.66490  -2.99950    11    15     9    22
 C    -3.05640  -3.29150  -0.84480    12    14     8    20
 C    -0.88830  -4.03820  -1.20320    13    14    37    21
 C    -2.03550  -3.54480  -1.72470    14    13    12    15
 C    -1.87830  -2.70040  -2.79640    15    11    14    39
 C    -1.43870  -1.23430   3.59930    16    91    59    17
 C    -2.06870  -2.25970   2.88780    17    16    18     6
 C    -1.19060  -3.22360   2.29890    18    17    19    93
 C    -1.66010  -3.81360   1.08090    19    21    20    18
 C    -2.87000  -3.41360   0.52850    20     5    19    12
 C    -0.70560  -4.20760   0.15960    21    96    19    13
 C    -2.00920  -0.63490  -3.56910    22    23    28    11
 C    -2.33600   0.68690  -3.39060    23    22    24    25
 C    -3.49380   0.88840  -2.62060    24    44    10    23
 C    -1.29020   1.64110  -3.41320    25    23    26    31
 C    -1.54540   2.83120  -2.64270    26    27    43    25
 C    -0.43740   3.51260  -2.21040    27    36    26    45
 C    -0.70290  -1.05730  -3.72940    28    39    22    30
 C     1.69020  -0.78460  -3.43090    29    33    30    41
 C     0.39980  -0.21010  -3.78120    30    28    31    29
 C     0.10220   1.20240  -3.65700    31    35    30    25
 C     3.83500  -0.38900  -2.32140    32    42    86    33
 C     2.75230   0.10520  -3.08660    33    32    29    34
 C     2.49220   1.50670  -2.99130    34    35    51    33
 C     1.18740   2.01860  -3.23380    35    36    31    34
 C     0.83650   3.16480  -2.51420    36    27    49    35
 C     0.34960  -3.78650  -1.76110    37    88    13    38
 C     0.53780  -2.88520  -2.81350    38    39    37    41
 C    -0.63220  -2.35240  -3.27530    39    38    28    15
 C     2.80190  -2.54900  -2.00420    40    42    90    41
 C     1.74950  -2.16250  -2.90560    41    38    40    29
 C     3.83810  -1.66130  -1.78170    42    32    40    84
 C    -2.70640   2.97420  -1.82260    43    44    47    26
 C    -3.65950   1.99120  -1.83300    44    24    43    54
 C    -0.37720   4.16610  -0.99470    45    46    50    27
 C    -1.40230   4.14120  -0.17910    46    45    47    62
 C    -2.58030   3.62020  -0.58160    47    46    52    43
 C     2.81500   3.21840  -1.30280    48    49    51    72
 C     1.62710   3.68690  -1.52140    49    48    50    36
 C     0.87150   4.17510  -0.51110    50    45    49    71
 C     3.31800   2.21000  -2.06800    51    87    48    34
 C    -3.24610   3.22180   0.55060    52    53    47    56
 C    -4.18810   2.23080   0.50900    53    52    55    54
 C    -4.41770   1.64260  -0.71740    54     3    53    44
 C    -4.23230   1.41410   1.61490    55    53    58     1
 C    -2.34490   3.38700   1.61390    56    62    57    52
 C    -2.31920   2.52930   2.67660    57    56    58    67
 C    -3.32960   1.56520   2.65420    58    60    55    57
 C    -1.95750   0.02740   3.69950    59    60    16    70
 C    -3.13130   0.32880   3.16540    60    59    58     7
 C     0.09510   3.76790   1.71420    61    62    71    66
 C    -1.19050   3.96040   1.16690    62    56    46    61
 C     3.65770   1.57200   2.08560    63    75    82    64
 C     2.60090   2.49890   2.18950    64    63    73    65
 C     1.46520   2.14300   2.99240    65    64    66    68
 C     0.19500   2.83160   2.79770    66    61    67    65
 C    -1.03900   2.23130   3.24200    67    70    57    66
 C     1.44990   0.78970   3.54010    68    69    76    65
 C     0.22690   0.24750   3.85310    69    70    68    91
 C    -0.93780   0.94400   3.76490    70    69    59    67
 C     1.20100   3.97760   0.85140    71    73    50    61
 C     3.30130   3.16660  -0.01690    72    80    48    73
 C     2.45540   3.40440   1.09330    73    71    72    64
 C     4.40790  -0.50650   1.85740    74    77    81    75
 C     3.58850   0.29630   2.62380    75    74    63    76
 C     2.46570  -0.16910   3.29170    76    75    68    79
 C     4.04470  -1.78780   1.67140    77    74    78    83
 C     2.95340  -2.30670   2.29690    78    77    94    79
 C     2.13430  -1.57790   3.15610    79    78    92    76
 C     4.27920   2.24060  -0.06420    80    82    72    87
 C     4.97080   0.20310   0.84670    81    82    74    85
 C     4.53330   1.47630   1.00900    82    80    81    63
 C     4.16330  -2.35930   0.43460    83    89    84    77
 C     4.58300  -1.60790  -0.60900    84    85    83    42
 C     5.03480  -0.34810  -0.41920    85    84    86    81
 C     4.62630   0.38640  -1.48630    86    87    85    32
 C     4.31110   1.67040  -1.33090    87    86    51    80
 C     1.28700  -3.97220  -0.80840    88    37    90    96
 C     3.16400  -3.24830   0.29720    89    83    90    94
 C     2.52670  -3.44280  -0.91710    90    88    89    40
 C    -0.08480  -1.11420   3.75150    91    16    92    69
 C     0.80620  -2.04910   3.30090    92    91    79    93
 C     0.24750  -3.14650   2.53680    93    95    92    18
 C     2.43930  -3.29870   1.49850    94    95    78    89
 C     1.13680  -3.71250   1.58470    95    94    96    93
 C     0.62050  -4.17360   0.40020    96    21    95    88
