    96
C96-C1-69                                                                       
 C     3.77120  -2.10430  -1.19790     1     6     2    58
 C     3.15560  -3.09870  -0.47250     2     1     3    10
 C     3.29930  -2.94750   0.90600     3     4    57     2
 C     2.32170  -3.35800   1.76010     4     5     3    28
 C     1.25870  -3.97960   1.31200     5     4    13    11
 C     3.26920  -1.71540  -2.40700     6     1    70     8
 C     1.38820  -1.36940  -3.72190     7    18    71     8
 C     2.09850  -2.26490  -2.93700     8     7     6     9
 C     1.38430  -3.28370  -2.23740     9     8    10    20
 C     1.97020  -3.71020  -0.99200    10    11     2     9
 C     1.07690  -4.19500  -0.04260    11    22     5    10
 C    -2.07620  -3.68560   1.13480    12    14    15    24
 C     0.06420  -3.82580   1.93660    13    14     5    26
 C    -0.85160  -4.14180   1.00010    14    12    13    22
 C    -2.82490  -3.45960   0.02880    15    12    44    17
 C    -2.80210  -2.62920  -2.12040    16    23    17    42
 C    -2.26540  -3.55580  -1.25580    17    16    15    21
 C     0.03790  -1.43860  -3.86390    18     7    19    91
 C    -0.70880  -2.43060  -3.28110    19    18    23    20
 C    -0.06620  -3.38940  -2.43250    20    19    21     9
 C    -0.90550  -3.94450  -1.40610    21    22    17    20
 C    -0.26170  -4.31040  -0.23850    22    11    14    21
 C    -2.03030  -2.06300  -3.09040    23    16    19    94
 C    -2.41440  -2.82740   2.15480    24    39    12    25
 C    -1.46340  -2.33120   3.07250    25    24    26    36
 C    -0.16230  -2.89870   2.98990    26    27    13    25
 C     0.96380  -2.17620   3.42220    27    26    28    30
 C     2.20680  -2.49730   2.81580    28    29     4    27
 C     3.23760  -1.63350   2.65190    29    32    28    57
 C     0.80360  -0.83820   3.88000    30    31    27    37
 C     1.93360  -0.01560   3.72550    31    50    32    30
 C     3.11960  -0.40530   3.12450    32    29    47    31
 C    -0.51510   1.23970   3.75570    33    34    49    37
 C    -1.69200   1.80750   3.32390    34    33    38    64
 C    -2.87040  -0.30690   3.10540    35    38    41    36
 C    -1.66730  -0.98660   3.54140    36    25    35    37
 C    -0.48800  -0.21220   3.91420    37    30    36    33
 C    -2.83580   1.08690   3.05850    38    86    34    35
 C    -3.50570  -2.14420   1.71510    39    24    41    44
 C    -4.52120  -0.09510   1.28240    40    85    45    41
 C    -3.80650  -0.89850   2.18430    41    39    40    35
 C    -3.79240  -1.72460  -1.77420    42    43    16    88
 C    -4.32120  -1.67420  -0.50440    43    45    44    42
 C    -3.77510  -2.53970   0.39750    44    43    15    39
 C    -4.72100  -0.45260  -0.05610    45    43    90    40
 C     2.89890   2.72770   1.96920    46    48    53    51
 C     3.73350   0.63010   2.48440    47    48    32    55
 C     2.95890   1.70060   2.80360    48    46    47    50
 C     0.65290   2.01240   3.48920    49    50    33    52
 C     1.85090   1.33640   3.53280    50    31    48    49
 C     1.73830   3.44960   1.87170    51    46    67    52
 C     0.60000   3.17360   2.62460    52    51    65    49
 C     3.57500   2.69900   0.78580    53    46    59    54
 C     4.34030   1.59390   0.35580    54    53    62    55
 C     4.43480   0.49250   1.26310    55    47    56    54
 C     4.50630  -0.83080   0.75490    56    58    57    55
 C     3.92600  -1.86100   1.48290    57    29     3    56
 C     4.43910  -1.01480  -0.61560    58    63    56     1
 C     2.81890   3.48550  -0.03640    59    60    53    67
 C     2.80000   3.22970  -1.34100    60    59    61    83
 C     3.53710   2.20260  -1.84510    61    60    68    62
 C     4.31360   1.35370  -1.04250    62    63    61    54
 C     4.35330   0.03890  -1.48610    63    58    70    62
 C    -1.73450   2.97450   2.54950    64    78    65    34
 C    -0.60350   3.61270   2.06960    65    64    52    81
 C     0.49130   4.20420  -0.07020    66    67    81    82
 C     1.68880   3.94620   0.58600    67    59    51    66
 C     2.82990   1.76530  -2.94390    68    69    61    72
 C     2.88370   0.46110  -3.34400    69    71    68    70
 C     3.65520  -0.39370  -2.60210    70    69    63     6
 C     1.75190  -0.04630  -3.89550    71    69    77     7
 C     1.64970   2.50760  -3.05900    72    83    76    68
 C    -1.89720   3.58370  -1.32190    73    74    95    80
 C    -0.76580   3.47220  -2.09940    74    73    82    75
 C    -0.78830   2.47420  -3.15330    75    76    74    92
 C     0.47870   2.00330  -3.60040    76    77    72    75
 C     0.60060   0.69990  -4.05110    77    91    71    76
 C    -2.90380   2.94340   1.86470    78    79    86    64
 C    -2.96450   3.42030   0.59860    79    87    78    80
 C    -1.85110   3.94230   0.02800    80    79    81    73
 C    -0.66570   4.13330   0.71470    81    80    66    65
 C     0.45330   3.89650  -1.48550    82    83    74    66
 C     1.63360   3.41970  -2.04020    83    72    60    82
 C    -4.46810   1.72230   0.01400    84    90    87    85
 C    -4.41370   1.25040   1.30200    85    86    40    84
 C    -3.60380   1.83290   2.19930    86    85    78    38
 C    -3.71130   2.78350  -0.33430    87    84    79    95
 C    -3.60600  -0.57120  -2.52540    88    94    89    42
 C    -3.96070   0.68660  -2.08460    89    88    90    96
 C    -4.60760   0.69000  -0.84190    90    84    45    89
 C    -0.45350  -0.14420  -4.08070    91    77    93    18
 C    -1.95100   1.59380  -3.28280    92    93    96    75
 C    -1.72170   0.26020  -3.75260    93    91    94    92
 C    -2.52630  -0.77590  -3.33040    94    88    93    23
 C    -3.03740   2.82340  -1.52650    95    87    73    96
 C    -3.10560   1.78490  -2.45340    96    95    92    89
