    96
C96-C1-92                                                                       
 C    -0.87730  -3.98730   0.92900     1     2    57     4
 C     0.45490  -4.18960   0.60490     2    53     3     1
 C     0.92280  -4.19260  -0.68650     3     6    15     2
 C    -1.81940  -3.87300  -0.16350     4     5     9     1
 C    -1.23660  -3.82700  -1.44150     5     6    24     4
 C     0.09130  -3.94470  -1.67450     6     3     5    16
 C    -4.13550  -1.65630   1.48850     7    10    64     8
 C    -3.30060  -2.71470   1.25920     8     7    58     9
 C    -3.05070  -3.20750  -0.02570     9     8     4    12
 C    -4.73530  -1.00290   0.46100    10    11     7    94
 C    -4.46950  -1.39190  -0.81070    11    10    87    12
 C    -3.64560  -2.48450  -1.12490    12    11    23     9
 C     2.70500  -2.97710  -1.79970    13    28    15    14
 C     1.76080  -2.60000  -2.81570    14    16    21    13
 C     2.20440  -3.76910  -0.74130    15     3    26    13
 C     0.49040  -3.15710  -2.72080    16    17     6    14
 C    -0.64230  -2.57830  -3.19540    17    16    19    24
 C    -1.80740  -0.66130  -3.67210    18    19    39    25
 C    -0.61010  -1.32960  -3.78860    19    18    17    20
 C     0.61930  -0.63200  -3.89340    20    19    21    41
 C     1.82180  -1.31400  -3.44250    21    22    14    20
 C     2.90550  -0.53420  -3.06960    22    43    21    27
 C    -2.90680  -2.36510  -2.32230    23    24    25    12
 C    -1.73760  -3.04470  -2.45100    24    23     5    17
 C    -2.92330  -1.16260  -3.01830    25    88    18    23
 C     2.59990  -3.62900   0.55720    26    30    15    53
 C     3.84750  -0.92280  -2.12200    27    28    31    22
 C     3.76000  -2.11770  -1.44140    28    27    29    13
 C     4.19890  -2.06940  -0.10900    29    30    33    28
 C     3.58080  -2.79490   0.87010    30    26    47    29
 C     4.35740   0.22990  -1.54310    31    35    27    32
 C     4.76130   0.26390  -0.21410    32    33    34    31
 C     4.65210  -0.90880   0.49000    33    32    29    48
 C     4.47050   1.43740   0.46990    34    38    49    32
 C     3.77080   1.30880  -2.15150    35    31    37    43
 C     2.47370   3.20350  -1.86070    36    37    78    44
 C     3.56720   2.49020  -1.48240    37    36    35    38
 C     3.89830   2.52670  -0.14360    38    34    37    80
 C    -1.86490   0.71410  -3.60500    39    18    40    91
 C    -0.72810   1.49170  -3.67070    40    39    83    41
 C     0.55590   0.82920  -3.86760    41    42    40    20
 C     1.72020   1.53030  -3.45970    42    44    43    41
 C     2.86200   0.83690  -3.09410    43    22    42    35
 C     1.58180   2.76180  -2.84130    44    84    42    36
 C     2.09510  -1.00880   3.50450    45    54    46    51
 C     2.41450  -2.18620   2.86820    46    45    47    52
 C     3.53220  -2.08840   2.02920    47    30    48    46
 C     4.23190  -0.92060   1.81550    48    50    47    33
 C     4.01260   1.42270   1.77510    49    50    34    65
 C     3.87280   0.23940   2.45590    50    51    49    48
 C     2.79270   0.16900   3.29780    51    50    67    45
 C     1.33570  -3.05610   2.55700    52    53    46    56
 C     1.50490  -3.79720   1.38910    53     2    26    52
 C     0.81260  -0.68640   3.85950    54    45    55    68
 C    -0.26650  -1.53390   3.66100    55    54    60    56
 C    -0.01570  -2.77170   2.94480    56    52    57    55
 C    -1.10690  -3.30950   2.16200    57    58     1    56
 C    -2.33970  -2.71150   2.27420    58    57    61     8
 C    -1.64450   0.55450   3.70970    59    62    70    60
 C    -1.52500  -0.89640   3.66860    60    61    55    59
 C    -2.56510  -1.58120   3.04590    61    64    58    60
 C    -2.79460   1.10250   3.14870    62    63    76    59
 C    -3.81430   0.36160   2.62780    63    64    93    62
 C    -3.68260  -0.97410   2.57290    64    63    61     7
 C     3.13120   2.48180   1.94330    65    80    49    66
 C     2.02670   2.41820   2.79990    66    67    65    72
 C     1.91010   1.21470   3.47700    67    68    51    66
 C     0.70210   0.70370   3.86590    68    67    70    54
 C    -0.43310   2.65500   3.01870    69    75    70    72
 C    -0.48480   1.37630   3.70410    70    68    59    69
 C     0.86440   3.94090   1.30510    71    73    79    72
 C     0.84240   3.15140   2.51080    72    66    71    69
 C    -0.36380   4.17190   0.69500    73    74    81    71
 C    -1.55910   3.77830   1.20340    74    73    75    95
 C    -1.63890   3.04940   2.37210    75    76    74    69
 C    -2.78600   2.29850   2.46660    76    75    62    92
 C     0.49980   4.04570  -1.46380    77    81    78    84
 C     1.74470   3.94390  -0.95230    78    77    36    79
 C     1.98700   3.91000   0.42760    79    80    78    71
 C     3.09650   3.19260   0.77620    80    79    65    38
 C    -0.53790   4.22070  -0.66620    81    77    85    73
 C    -2.01300   3.05220  -2.18210    82    85    90    83
 C    -0.84560   2.74260  -2.98520    83    84    40    82
 C     0.35740   3.31150  -2.60730    84    44    77    83
 C    -1.77400   3.79100  -1.01240    85    81    95    82
 C    -4.63110   0.87210  -0.72090    86    94    87    89
 C    -4.45550  -0.21580  -1.54450    87    88    86    11
 C    -3.66320  -0.10490  -2.61220    88    87    25    91
 C    -3.96180   2.09620  -0.95030    89    86    96    90
 C    -3.13270   2.19670  -2.12950    90    91    82    89
 C    -3.02140   1.05960  -2.92060    91    88    39    90
 C    -3.76760   2.21510   1.46800    92    93    96    76
 C    -4.41600   1.03430   1.61030    93    94    92    63
 C    -4.86760   0.36560   0.52920    94    93    86    10
 C    -2.47440   3.61010   0.14880    95    96    85    74
 C    -3.56580   2.80380   0.21960    96    95    92    89
