    96
C96-C1-128                                                                      
 C     0.41600   3.45810   2.25770     1     2     6    60
 C     1.55690   2.87460   2.67850     2     1     3     9
 C     2.62160   3.06710   1.81000     3     4     2    59
 C     3.67090   2.22940   1.78900     4     3     5    21
 C     3.64870   1.12660   2.57290     5    22     4    10
 C    -0.79980   3.03840   2.69090     6     1    74     7
 C    -1.00110   1.87840   3.47550     7     6    16     8
 C     0.17860   1.13290   3.81250     8     7     9    12
 C     1.45940   1.69180   3.47390     9    10     2     8
 C     2.55030   0.84370   3.34640    10     5    14     9
 C    -1.24350  -0.89100   3.76960    11    15    18    12
 C     0.05980  -0.31530   3.93720    12    11     8    13
 C     1.23220  -1.14480   3.65410    13    14    28    12
 C     2.43900  -0.52900   3.39420    14    10    13    23
 C    -1.27660  -2.21060   3.29370    15    27    90    11
 C    -2.28240   1.27760   3.33150    16    18     7    17
 C    -3.21820   1.89060   2.44760    17    73    94    16
 C    -2.41490  -0.11710   3.49610    18    16    96    11
 C     4.75470   1.04970   0.09000    19    21    32    20
 C     4.77540  -0.06290   0.90650    20    22    24    19
 C     4.18660   2.18460   0.53220    21    19     4    41
 C     4.19640  -0.02740   2.12900    22     5    20    23
 C     3.45770  -1.07150   2.59920    23    22    26    14
 C     4.61890  -1.16730   0.12970    24    20    33    25
 C     3.91130  -2.30580   0.57130    25    24    36    26
 C     3.30260  -2.25600   1.88370    26    23    29    25
 C    -0.15700  -2.91720   2.94540    27    15    92    28
 C     1.13390  -2.45310   3.08990    28    27    13    29
 C     2.12910  -2.97170   2.17140    29    30    26    28
 C     1.63890  -3.78290   1.13590    30    93    35    29
 C     3.86940  -1.38920  -2.07190    31    33    37    34
 C     4.56610   0.67780  -1.19880    32    19    33    39
 C     4.56890  -0.70180  -1.17180    33    31    32    24
 C     3.24050  -2.55040  -1.74760    34    31    36    51
 C     2.14340  -3.76310  -0.13650    35    36    30    49
 C     3.25190  -3.04030  -0.44690    36    35    34    25
 C     3.15250  -0.73890  -3.02620    37    31    43    38
 C     3.07780   0.65220  -3.05700    38    42    37    39
 C     3.76230   1.42300  -2.09380    39    38    32    40
 C     3.12990   2.63290  -1.61400    40    41    56    39
 C     3.40080   2.95920  -0.28060    41    21    59    40
 C     1.90030   1.11960  -3.55720    42    38    55    46
 C     2.08620  -1.55870  -3.37160    43    51    45    37
 C    -0.32680  -1.80120  -3.62610    44    48    45    53
 C     0.89440  -1.09630  -3.86520    45    43    46    44
 C     0.87330   0.28880  -4.00010    46    68    45    42
 C    -2.64990  -1.50140  -3.03540    47    54    79    48
 C    -1.53030  -1.03630  -3.71830    48    47    67    44
 C     1.06250  -3.96400  -1.01470    49    83    50    35
 C     0.98850  -3.36550  -2.26020    50    51    49    53
 C     2.13620  -2.67830  -2.58530    51    43    50    34
 C    -1.46170  -3.33950  -1.99640    52    54    85    53
 C    -0.29010  -2.98280  -2.76780    53    50    52    44
 C    -2.61670  -2.58940  -2.18890    54    47    52    88
 C     1.32430   2.30220  -3.13930    55    61    42    56
 C     1.86000   3.07800  -2.11710    56    55    40    57
 C     0.88320   3.79890  -1.31600    57    58    56    64
 C     1.25680   4.00630   0.04120    58    59    60    57
 C     2.46570   3.57720   0.51370    59    58    41     3
 C     0.26170   4.04200   0.99040    60    66    58     1
 C    -0.00940   2.24440  -3.42480    61    55    63    68
 C    -2.22770   2.41260  -2.79860    62    70    63    69
 C    -0.95800   2.96950  -2.74330    63    61    62    64
 C    -0.54420   3.75130  -1.63280    64    63    65    57
 C    -1.54180   3.91530  -0.60340    65    66    71    64
 C    -1.05220   4.02590   0.69360    66    60    74    65
 C    -1.49460   0.37990  -3.90340    67    68    69    48
 C    -0.27890   0.99010  -3.97540    68    46    67    61
 C    -2.49340   1.17480  -3.37360    69    80    67    62
 C    -3.16560   2.61150  -1.81570    70    71    62    75
 C    -2.84830   3.34630  -0.70020    71    70    72    65
 C    -3.50150   2.89900   0.45450    72    73    77    71
 C    -2.88740   2.96040   1.67100    73    74    17    72
 C    -1.70540   3.51050   1.78430    74    73     6    66
 C    -4.02310   1.51100  -1.78480    75    80    76    70
 C    -4.62340   1.03920  -0.62490    76    77    75    82
 C    -4.34210   1.80100   0.49820    77    94    72    76
 C    -4.23220  -1.18810  -1.46810    78    79    88    82
 C    -3.65980  -0.67430  -2.59010    79    80    78    47
 C    -3.57500   0.65530  -2.75050    80    79    69    75
 C    -4.59860  -0.88610   0.81950    81    95    86    82
 C    -4.74770  -0.36720  -0.45870    82    81    78    76
 C    -0.05540  -4.21460  -0.27910    83    49    93    85
 C    -2.33420  -3.70490   0.30870    84    87    91    85
 C    -1.35530  -3.95510  -0.70800    85    83    52    84
 C    -3.99270  -2.10320   1.05630    86    89    81    87
 C    -3.46660  -2.91700   0.04400    87    88    86    84
 C    -3.60270  -2.40150  -1.22110    88    87    78    54
 C    -3.37340  -1.99040   2.27700    89    90    96    86
 C    -2.31040  -2.72190   2.53420    90    89    91    15
 C    -1.83070  -3.61200   1.62350    91    92    90    84
 C    -0.53670  -3.78060   1.94500    92    93    91    27
 C     0.33730  -4.13820   1.03310    93    92    30    83
 C    -4.18090   1.22620   1.73890    94    95    17    77
 C    -4.30500  -0.08480   1.90310    95    94    96    81
 C    -3.47490  -0.73080   2.77280    96    89    95    18
