    96
C96-Cs-133                                                                      
 C    -0.45030  -3.23330  -2.57010     1     7     2    57
 C     0.74670  -2.70250  -3.00120     2     1    10     3
 C     1.92000  -3.11880  -2.28540     3     4    58     2
 C     3.05790  -2.30490  -2.25700     4     6     3     5
 C     3.88710  -2.28680  -1.12930     5    43    22     4
 C     2.97130  -1.10240  -2.92590     6     4    20    11
 C    -1.65490  -2.63700  -2.76750     7     1    67     8
 C    -1.82710  -1.37650  -3.36040     8     7    17     9
 C    -0.61990  -0.71010  -3.76700     9     8    13    10
 C     0.64560  -1.41810  -3.62370    10    11     2     9
 C     1.81100  -0.67210  -3.55360    11    15    10     6
 C    -1.82540   1.40780  -3.35900    12    16    19    13
 C    -0.61570   0.74640  -3.76640    13    12    14     9
 C     0.65280   1.44690  -3.61940    14    15    30    13
 C     1.82030   0.70310  -3.55070    15    11    14    24
 C    -1.64890   2.66210  -2.75210    16    29    90    12
 C    -3.01680  -0.68640  -2.98290    17    19     8    18
 C    -3.88530  -1.31910  -2.04070    18    94    68    17
 C    -3.02160   0.72630  -2.98400    19    17    96    12
 C     3.69980   0.00500  -2.52940    20    24     6    21
 C     4.52550   0.00630  -1.41210    21    23    22    20
 C     4.56970  -1.17240  -0.70180    22     5    21    35
 C     4.57620   1.17620  -0.69280    23    21    26    33
 C     2.98640   1.12210  -2.92340    24    25    20    15
 C     3.07200   2.31870  -2.24680    25    24    31    26
 C     3.89120   2.29590  -1.11010    26    28    23    25
 C     2.46440   3.74730   0.01720    27    28    32    51
 C     3.54860   2.98210   0.02140    28    27    39    26
 C    -0.43990   3.25530  -2.55930    29    16    30    92
 C     0.76000   2.72960  -2.99080    30    29    14    31
 C     1.93560   3.13520  -2.27310    31    25    32    30
 C     1.71470   3.89730  -1.10590    32    93    27    31
 C     4.59530   1.17220   0.70050    33    34    39    23
 C     4.55830  -0.00770   1.40360    34    33    36    35
 C     4.57810  -1.18400   0.69100    35    34    42    22
 C     3.77380  -0.00530   2.53300    36    34    37    40
 C     3.06130   1.10860   2.94500    37    55    38    36
 C     3.06890   2.30590   2.26220    38    37    39    52
 C     3.90000   2.29150   1.13380    39    28    33    38
 C     3.05410  -1.12520   2.92710    40    45    41    36
 C     3.05660  -2.31930   2.23880    41    40    42    49
 C     3.88110  -2.30300   1.10410    42    43    35    41
 C     3.53570  -2.99550  -0.00920    43    44    42     5
 C     2.45280  -3.75830   0.00230    44    43    58    50
 C     1.95290  -0.70530   3.60390    45    40    47    55
 C    -0.30990  -0.70560   3.91300    46    60    47    56
 C     0.79840  -1.46300   3.66880    47    46    45    48
 C     0.67060  -2.69650   2.96490    48    47    49    62
 C     1.85420  -3.10010   2.24970    49    50    41    48
 C     1.62700  -3.85620   1.11020    50    64    44    49
 C     1.64320   3.83280   1.13360    51    80    52    27
 C     1.86170   3.08090   2.27840    52    51    38    53
 C     0.67540   2.67770   2.98900    53    54    52    83
 C     0.80540   1.44280   3.69000    54    56    55    53
 C     1.95830   0.69330   3.61980    55    37    54    45
 C    -0.31220   0.69830   3.92310    56    88    54    46
 C    -0.56770  -4.00370  -1.43130    57    59    65     1
 C     1.69920  -3.88840  -1.12390    58    59    44     3
 C     0.47960  -4.25110  -0.69000    59    57    58    64
 C    -1.55550  -1.13460   3.59690    60    46    77    61
 C    -1.82650  -2.32040   2.89710    61    60    72    62
 C    -0.68000  -3.10420   2.53330    62    63    61    48
 C    -0.81500  -3.87880   1.33390    63    64    66    62
 C     0.37730  -4.19600   0.68370    64    50    59    63
 C    -1.77680  -3.84840  -0.86770    65    57    67    66
 C    -2.00080  -3.78260   0.53370    66    71    65    63
 C    -2.48590  -3.12210  -1.77460    67    68    65     7
 C    -3.55650  -2.48150  -1.40490    68    67    18    69
 C    -3.95020  -2.48540  -0.08560    69    75    68    71
 C    -3.85660  -1.13600   2.20230    70    74    79    72
 C    -3.12470  -3.03510   0.93380    71    66    72    69
 C    -3.04860  -2.30500   2.14520    72    71    70    61
 C    -4.64930   0.69610   1.20530    73    76    78    74
 C    -4.66050  -0.68210   1.19570    74    75    70    73
 C    -4.69090  -1.35050   0.02970    75    74    69    94
 C    -4.68040   1.36460   0.03590    76    73    84    95
 C    -2.32590  -0.00490   3.51940    77    79    60    88
 C    -3.85010   1.14340   2.21480    78    73    79    86
 C    -3.44890   0.00270   2.85100    79    77    78    70
 C     0.39370   4.17280   0.69400    80    51    93    82
 C    -1.98040   3.78270   0.54300    81    85    91    82
 C    -0.80070   3.86200   1.35570    82    80    83    81
 C    -0.67230   3.09080   2.55670    83    82    87    53
 C    -3.93320   2.49570  -0.07820    84    76    89    85
 C    -3.10840   3.03910   0.94520    85    81    86    84
 C    -3.04020   2.31030   2.16020    86    85    78    87
 C    -1.82320   2.31240   2.91530    87    88    86    83
 C    -1.55580   1.12480   3.61100    88    56    77    87
 C    -3.54940   2.49730  -1.40510    89    90    96    84
 C    -2.47510   3.14500  -1.75650    90    89    91    16
 C    -1.75840   3.86280  -0.85490    91    92    90    81
 C    -0.55460   4.02450  -1.41800    92    93    91    29
 C     0.49410   4.26050  -0.68030    93    92    32    80
 C    -4.68150  -0.65250  -1.15490    94    95    18    75
 C    -4.67930   0.68270  -1.15900    95    94    96    76
 C    -3.89730   1.34390  -2.04600    96    95    89    19
