    96
C96-C2-52                                                                       
 C     2.30080   3.26050   1.71190     1     7    56     2
 C     2.95570   2.17900   2.28660     2     1    10     3
 C     4.02790   1.59630   1.52390     3     4    74     2
 C     4.31240   0.22130   1.68430     4     6     5     3
 C     4.77520  -0.52230   0.57560     5    54    19     4
 C     3.52770  -0.48910   2.57260     6    17     4    11
 C     1.02030   3.60890   2.00260     7     1    67     8
 C     0.19530   2.92850   2.89200     8     7    15     9
 C     0.75010   1.73750   3.46990     9     8    10    13
 C     2.12770   1.41020   3.17480    10    11     2     9
 C     2.47260   0.07460   3.27920    11    10    27     6
 C    -1.53830   0.89380   3.56960    12    14    28    13
 C    -0.18280   0.66890   3.79510    13    12    26     9
 C    -2.02740   2.06850   3.05030    14    15    12    96
 C    -1.18840   3.08100   2.66780    15    14    16     8
 C    -1.65280   3.77750   1.54450    16    66    93    15
 C     3.24630  -1.82660   2.41070    17     6    18    21
 C     3.66520  -2.52820   1.29800    18    20    19    17
 C     4.39600  -1.84410   0.37490    19    18     5    35
 C     2.79830  -3.46770   0.83470    20    18    23    33
 C     2.03990  -2.08430   3.03220    21    22    27    17
 C     1.20330  -3.09720   2.64440    22    21    23    31
 C     1.65250  -3.78150   1.50870    23    25    20    22
 C    -0.50310  -4.22190   0.85600    24    25    51    32
 C     0.78010  -4.24980   0.59640    25    24    23    38
 C     0.19730  -0.70180   3.79560    26    27    13    30
 C     1.55060  -0.92200   3.57070    27    21    11    26
 C    -2.46710  -0.10030   3.28410    28    29    87    12
 C    -2.11310  -1.43760   3.18110    29    28    91    30
 C    -0.73440  -1.76800   3.46700    30    31    29    26
 C    -0.18220  -2.95480   2.87630    31    32    22    30
 C    -1.01520  -3.63010   1.99340    32    92    24    31
 C     2.54080  -3.62680  -0.52950    33    38    34    20
 C     3.14690  -2.85300  -1.47340    34    33    35    41
 C     4.17600  -2.02930  -0.99360    35    36    19    34
 C     4.50650  -0.86840  -1.59240    36    35    37    54
 C     3.75840  -0.44720  -2.63630    37    36    55    42
 C     1.26100  -4.06830  -0.67650    38    33    25    39
 C     0.40670  -3.73520  -1.74390    39    38    49    40
 C     0.94120  -2.80040  -2.69440    40    39    41    44
 C     2.31990  -2.41070  -2.56010    41    42    34    40
 C     2.68290  -1.17240  -3.07770    42    37    46    41
 C    -1.40250  -2.08320  -3.12710    43    47    44    48
 C    -0.00880  -1.89730  -3.33710    44    43    40    45
 C     0.43400  -0.55570  -3.70900    45    46    70    44
 C     1.76010  -0.26870  -3.56930    46    45    42    59
 C    -2.23500  -0.97390  -3.34420    47    82    69    43
 C    -1.90590  -3.07370  -2.22060    48    49    50    43
 C    -0.98250  -3.83090  -1.48440    49    48    39    51
 C    -3.17080  -2.80910  -1.63510    50    81    86    48
 C    -1.38780  -4.12480  -0.15620    51    24    84    49
 C     4.65300   1.34980  -0.81800    52    54    74    53
 C     3.95200   1.77450  -1.92920    53    55    58    52
 C     4.92110   0.04390  -0.65660    54    52     5    36
 C     3.48090   0.86680  -2.80490    55    53    37    59
 C     2.54360   3.67600   0.41720    56    57    64     1
 C     3.46140   3.09110  -0.30760    57    56    74    58
 C     3.18130   2.84390  -1.63780    58    53    57    61
 C     2.24090   1.01740  -3.35760    59    55    46    60
 C     1.40750   2.12340  -3.13030    60    59    71    61
 C     1.91490   3.10440  -2.21760    61    63    58    60
 C    -0.40270   3.74500  -1.71450    62    65    63    72
 C     0.99060   3.84640  -1.46540    63    61    62    64
 C     1.39010   4.13270  -0.13340    64    67    56    63
 C    -1.25070   4.06270  -0.63140    65    79    66    62
 C    -0.77050   4.25520   0.64080    66    67    16    65
 C     0.51120   4.22940   0.88000    67    66    64     7
 C    -2.31440   2.43370  -2.53140    68    73    78    72
 C    -1.75780   0.31110  -3.55950    69    70    73    47
 C    -0.43190   0.59370  -3.70670    70    69    45    71
 C     0.01350   1.93280  -3.33370    71    60    72    70
 C    -0.93520   2.82050  -2.67580    72    62    68    71
 C    -2.68710   1.20290  -3.06050    73    75    69    68
 C     4.25860   2.12600   0.22920    74    52    57     3
 C    -3.75820   0.47840  -2.62090    75    76    82    73
 C    -4.49570   0.87710  -1.56000    76    77    75    83
 C    -4.16580   2.03690  -0.95230    77    76    94    78
 C    -3.13520   2.85980  -1.43370    78    79    77    68
 C    -2.53070   3.62170  -0.48210    79    78    65    93
 C    -4.63960  -1.33810  -0.80540    80    83    85    81
 C    -3.94770  -1.74530  -1.92830    81    82    50    80
 C    -3.48250  -0.83740  -2.79620    82    81    75    47
 C    -4.90930  -0.03180  -0.62600    83    80    88    76
 C    -2.53530  -3.68010   0.41000    84    86    51    92
 C    -4.24550  -2.12220   0.23730    85    86    80    90
 C    -3.44770  -3.08070  -0.30860    86    84    85    50
 C    -3.52860   0.46750   2.59320    87    96    89    28
 C    -4.78560   0.52450   0.61070    88    83    94    89
 C    -4.32050  -0.23840   1.70320    89    87    88    90
 C    -4.01990  -1.60850   1.54260    90    89    85    91
 C    -2.94520  -2.20490   2.29180    91    92    90    29
 C    -2.29710  -3.28610   1.71460    92    32    84    91
 C    -2.80270   3.46720   0.88070    93    95    16    79
 C    -4.40680   1.84820   0.41450    94    95    88    77
 C    -3.66990   2.52080   1.33750    95    94    93    96
 C    -3.24060   1.80940   2.43890    96    95    87    14
