    96
C96-C1-95                                                                       
 C    -3.02450   3.19600  -0.62760     1    15     2     9
 C    -3.98530   2.36320  -0.07540     2     3     1    13
 C    -3.82220   2.18170   1.28290     3    61     2     4
 C    -2.77850   2.76160   1.99790     4    10     3     8
 C     1.06600   2.33350   3.32030     5    22    96     6
 C    -0.23700   2.76840   3.10770     6     5    12     7
 C    -0.46920   3.59740   1.95060     7     8     6    24
 C    -1.79250   3.56820   1.42620     8     9     4     7
 C    -1.97730   3.77330   0.07440     9    26     8     1
 C    -2.48790   1.91910   3.04330    10    12     4    67
 C    -0.88810   0.65070   4.10460    11    93    65    12
 C    -1.24990   1.90000   3.60330    12    10    11     6
 C    -4.46940   1.28860  -0.86230    13    17    14     2
 C    -4.73430   0.09000  -0.19390    14    60    30    13
 C    -2.55990   3.00800  -1.89480    15    16    18     1
 C    -3.00240   1.98380  -2.63490    16    15    17    40
 C    -3.94270   1.13150  -2.14020    17    16    28    13
 C    -1.27950   3.44430  -2.00780    18    15    26    19
 C    -0.37180   2.88610  -2.90530    19    38    18    39
 C     1.36920   3.71820  -1.34120    20    21    25    38
 C     2.63800   3.39730  -0.87110    21    42    27    20
 C     2.12530   2.67270   2.53840    22     5    23    85
 C     1.95550   3.46680   1.42020    23    27    22    24
 C     0.64920   3.90240   1.06190    24    23    25     7
 C     0.39210   4.05470  -0.35810    25    26    20    24
 C    -0.91230   3.96690  -0.77680    26    25     9    18
 C     2.92990   3.25620   0.46920    27    23    21    90
 C    -3.66910  -0.08900  -2.71000    28    29    17    32
 C    -3.95490  -1.24640  -2.03580    29    31    28    30
 C    -4.47450  -1.14140  -0.76060    30    14    29    47
 C    -3.10100  -2.28290  -2.26330    31    29    45    37
 C    -2.53520   0.03030  -3.51730    32    40    36    28
 C     1.43040   0.99890  -3.75140    33    34    49    41
 C     0.11660   0.68140  -3.96320    34    33    39    35
 C    -0.24560  -0.72180  -3.94620    35    36    34    51
 C    -1.62590  -0.99800  -3.71900    36    37    32    35
 C    -1.98140  -2.17490  -3.09890    37    53    36    31
 C     0.96920   3.09730  -2.59360    38    41    19    20
 C    -0.81410   1.71840  -3.63960    39    40    34    19
 C    -2.12890   1.33570  -3.46490    40    32    16    39
 C     1.85670   2.18820  -3.15580    41    43    38    33
 C     3.50510   2.59130  -1.55250    42    43    82    21
 C     3.09390   1.96690  -2.67370    43    41    42    78
 C    -1.59310  -3.69400  -1.60750    44    48    45    53
 C    -2.80440  -3.19440  -1.28050    45    44    31    46
 C    -3.23890  -3.06400   0.04880    46    47    45    57
 C    -4.09320  -2.01480   0.25900    47    46    59    30
 C    -0.82060  -4.17310  -0.65670    48    44    54    56
 C     2.41040   0.04230  -3.52960    49    78    33    50
 C     2.12440  -1.31840  -3.34560    50    49    51    70
 C     0.76970  -1.72140  -3.56540    51    50    52    35
 C     0.33760  -2.91360  -2.88850    52    53    55    51
 C    -1.03770  -3.06810  -2.69850    53    37    44    52
 C     0.51920  -4.15280  -0.82820    54    48    73    55
 C     1.18320  -3.55790  -1.93180    55    71    54    52
 C    -1.17460  -4.05740   0.67550    56    69    48    57
 C    -2.34800  -3.44470   1.09380    57    56    46    63
 C    -3.20430  -1.61820   2.49050    58    59    66    63
 C    -4.09890  -1.32700   1.44320    59    47    60    58
 C    -4.54550  -0.05020   1.15510    60    61    14    59
 C    -4.11240   0.98820   1.88490    61    60    67     3
 C    -0.99510  -2.66870   3.02450    62    64    68    63
 C    -2.27520  -2.71500   2.33170    63    57    58    62
 C    -0.72990  -1.55180   3.80020    64    65    62    92
 C    -1.62590  -0.50420   3.90200    65    66    64    11
 C    -2.84140  -0.49480   3.28330    66    65    67    58
 C    -3.28930   0.78290   2.93590    67    61    10    66
 C     0.18320  -3.31310   2.53640    68    69    62    76
 C     0.01090  -4.01570   1.35160    69    56    73    68
 C     2.99650  -2.01500  -2.42950    70    71    80    50
 C     2.48890  -3.10030  -1.68600    71    55    70    74
 C     2.22160  -3.70080   0.66770    72    73    74    75
 C     1.01920  -4.16440   0.43560    73    72    54    69
 C     2.98500  -3.24100  -0.36140    74    81    72    71
 C     2.50740  -3.04060   1.83280    75    72    86    76
 C     1.51700  -2.79350   2.78580    76    75    91    68
 C     4.25800   0.04850  -2.05280    77    78    80    84
 C     3.45300   0.68370  -2.91520    78    77    43    49
 C     4.42710  -1.44490  -0.49070    79    81    83    80
 C     4.03030  -1.26480  -1.80540    80    77    79    70
 C     3.87200  -2.39860   0.22750    81    79    74    86
 C     4.30480   1.94260  -0.66200    82    84    90    42
 C     4.74750  -0.24120   0.09250    83    84    79    88
 C     4.69990   0.67270  -0.91160    84    82    83    77
 C     3.09200   1.65120   2.63280    85    89    95    22
 C     3.56800  -2.20940   1.56060    86    75    81    87
 C     3.77660  -0.99000   2.20050    87    86    94    88
 C     4.39910   0.05770   1.43210    88    83    89    87
 C     4.01620   1.41140   1.65450    89    85    90    88
 C     3.95690   2.31160   0.59470    90    82    89    27
 C     1.71890  -1.60440   3.51190    91    92    76    94
 C     0.54640  -1.05450   4.01710    92    93    64    91
 C     0.40340   0.28620   4.21300    93    96    11    92
 C     2.82290  -0.70580   3.21330    94    95    87    91
 C     2.56330   0.65560   3.41490    95    96    85    94
 C     1.37860   1.11790   3.87640    96    93    95     5
