    96
C96-C1-20                                                                       
 C    -2.63840  -2.89690   1.97010     1     2     8    59
 C    -3.45160  -1.83600   2.22800     2     1     3     7
 C    -4.38380  -1.55520   1.21210     3     4    58     2
 C    -4.86020  -0.30250   1.02670     4     5     3    12
 C    -4.43550   0.70160   1.82020     5     4    13     6
 C    -3.46680   0.45800   2.77660     6    23     5     7
 C    -2.89640  -0.78890   3.03520     7     6     2    19
 C    -1.38770  -2.99990   2.51370     8    71     1     9
 C    -0.75910  -2.01070   3.30040     9     8    19    18
 C    -4.79070   1.14650  -0.81910    10    12    26    11
 C    -4.44020   2.19750  -0.00400    11    13    29    10
 C    -5.02710  -0.08980  -0.32250    12    10    36     4
 C    -4.25490   1.95370   1.32140    13    14     5    11
 C    -3.22120   2.53910   1.96700    14    13    15    23
 C    -2.37100   3.44670   1.35000    15    16    14    28
 C    -1.13250   3.52630   1.88780    16    15    49    24
 C     1.30580  -2.97290   2.48200    17    70    75    18
 C     0.67490  -2.00560   3.29760    18    17    92     9
 C    -1.52630  -0.83410   3.53360    19     9    21     7
 C     0.68580   0.38220   3.73560    20    95    92    21
 C    -0.77320   0.38960   3.72750    21    22    19    20
 C    -1.44560   1.60690   3.36440    22    23    24    21
 C    -2.73960   1.61170   2.90540    23     6    22    14
 C    -0.70070   2.67150   2.90270    24    96    22    16
 C    -2.25850   2.59110  -2.53440    25    27    32    30
 C    -4.08680   1.26500  -1.99350    26    27    10    34
 C    -3.40350   2.44450  -1.88450    27    25    26    29
 C    -2.50060   3.69580  -0.03760    28    29    15    31
 C    -3.56280   3.01930  -0.65300    29    11    27    28
 C    -1.24600   3.36130  -2.03840    30    25    54    31
 C    -1.28860   3.93970  -0.77040    31    30    50    28
 C    -1.74020   1.59530  -3.30690    32    25    38    33
 C    -2.33660   0.34120  -3.40710    33    32    41    34
 C    -3.58620   0.15880  -2.71670    34    35    26    33
 C    -3.90880  -1.11180  -2.19230    35    37    36    34
 C    -4.62750  -1.20790  -0.98670    36    12    58    35
 C    -2.98290  -2.11640  -2.40260    37    56    35    42
 C    -0.39950   1.82470  -3.41460    38    32    39    54
 C     0.52300   0.84860  -3.70550    39    38    47    40
 C     0.00980  -0.50330  -3.77400    40    41    44    39
 C    -1.40430  -0.71360  -3.61120    41    42    33    40
 C    -1.79130  -1.93920  -3.09160    42    61    41    37
 C     2.25080  -1.22090  -3.22570    43    44    48    66
 C     0.93080  -1.55930  -3.42650    44    43    60    40
 C     3.38270   2.30820  -1.89220    45    86    55    46
 C     2.19930   2.34030  -2.62350    46    45    53    47
 C     1.85730   1.15500  -3.38770    47    48    39    46
 C     2.72410   0.08150  -3.26740    48    87    47    43
 C    -0.01250   3.92060   1.20520    49    88    16    50
 C    -0.01100   4.10340  -0.17870    50    49    31    52
 C     2.42000   3.56960  -0.06400    51    55    90    52
 C     1.23980   3.81500  -0.83890    52    51    50    53
 C     1.17130   3.18220  -2.13760    53    54    46    52
 C    -0.08470   2.94590  -2.63640    54    30    53    38
 C     3.49460   2.89860  -0.64560    55    45    84    51
 C    -2.77040  -3.14480  -1.50570    56    62    37    57
 C    -3.41830  -3.15860  -0.28260    57    58    59    56
 C    -4.32170  -2.17370  -0.03980    58    57    36     3
 C    -2.63760  -3.58340   0.75190    59    65    57     1
 C     0.49520  -2.75700  -2.78350    60    61    44    63
 C    -0.87700  -2.88900  -2.66480    61    62    60    42
 C    -1.48780  -3.61860  -1.67490    62    64    61    56
 C     1.33570  -3.44370  -1.82040    63    67    68    60
 C    -0.74370  -4.17070  -0.66410    64    62    65    68
 C    -1.39140  -4.09960   0.57160    65    71    59    64
 C     3.12380  -1.93970  -2.42080    66    80    43    67
 C     2.67560  -2.98900  -1.62360    67    66    63    78
 C     0.65900  -4.08810  -0.73170    68    69    64    63
 C     1.31210  -4.00400   0.50150    69    77    70    68
 C     0.61390  -3.80310   1.66120    70    71    17    69
 C    -0.68630  -3.83120   1.69110    71    70    65     8
 C     4.88530  -0.30650   1.12900    72    76    73    81
 C     4.34300  -1.55100   1.28120    73    72    74    79
 C     3.36810  -1.81700   2.24670    74    75    73    91
 C     2.54690  -2.84810   1.93580    75    74    17    77
 C     4.39990   0.69240   1.89880    76    72    83    93
 C     2.53980  -3.47640   0.68190    77    69    78    75
 C     3.32260  -3.04840  -0.34720    78    77    79    67
 C     4.30360  -2.13440   0.00380    79    82    78    73
 C     4.15520  -1.10360  -2.06350    80    82    87    66
 C     5.17860  -0.07790  -0.19290    81    82    85    72
 C     4.78900  -1.20100  -0.86330    82    80    79    81
 C     4.20910   1.94050   1.37730    83    89    84    76
 C     4.43570   2.15650   0.05190    84    85    83    55
 C     4.91930   1.15620  -0.73460    85    84    86    81
 C     4.26280   1.24990  -1.92460    86    87    85    45
 C     3.89810   0.13270  -2.58740    87    86    48    80
 C     1.08330   3.50260   1.88930    88    90    49    96
 C     3.15840   2.51600   1.99100    89    83    90    94
 C     2.31110   3.39190   1.34240    90    88    89    51
 C     2.81900  -0.78160   3.06340    91    93    74    92
 C     1.44520  -0.83660   3.54270    92    18    20    91
 C     3.39840   0.46130   2.82280    93    94    76    91
 C     2.66430   1.60460   2.93840    94    93    95    89
 C     1.36500   1.59790   3.37920    95    94    96    20
 C     0.63660   2.66480   2.91160    96    24    95    88
