    96
C96-C1-119                                                                      
 C    -2.94870   1.44670  -2.91180     1     2     6    64
 C    -3.43430   2.14290  -1.84180     2     1     3    10
 C    -4.27590   1.39860  -1.01280     3     4     2    61
 C    -4.40390   1.67710   0.29770     4     3     5    14
 C    -3.65860   2.67130   0.83540     5     4    15    11
 C    -1.75160   1.75730  -3.49750     6     1     8    66
 C     0.39130   2.55920  -3.31160     7    24     8    65
 C    -0.93700   2.76250  -3.01510     8     7     6     9
 C    -1.31540   3.48420  -1.84080     9     8    10    26
 C    -2.60270   3.17660  -1.28710    10    11     9     2
 C    -2.76420   3.38530   0.07910    11     5    28    10
 C    -4.10780   0.41110   2.22860    12    14    32    13
 C    -3.36980   1.41430   2.78340    13    15    17    12
 C    -4.61820   0.52230   0.98650    14    12     4    40
 C    -3.14810   2.54350   2.08340    15    13    16     5
 C    -1.95710   3.17920   2.15580    16    15    19    28
 C    -2.37850   0.89050   3.55140    17    13    33    18
 C    -1.14770   1.51260   3.72860    18    17    35    19
 C    -0.93560   2.75560   3.00490    19    22    16    18
 C     1.87340   3.76060   0.86850    20    29    89    21
 C     0.59020   3.86390   1.39260    21    20    27    22
 C     0.34440   3.17170   2.64420    22    23    19    21
 C     1.39010   2.40890   3.15080    23    90    22    34
 C     1.38630   3.09360  -2.56170    24     7    25    93
 C     1.11400   3.80530  -1.40000    25    29    24    26
 C    -0.23830   3.97800  -0.98050    26    25    27     9
 C    -0.46570   4.05760   0.44910    27    28    21    26
 C    -1.72200   3.75950   0.90850    28    27    11    16
 C     2.14130   3.73970  -0.47460    29    20    25    96
 C    -2.58790  -2.75720   2.08830    30    41    31    38
 C    -3.59670  -1.88220   1.81030    31    30    32    39
 C    -3.57960  -0.76220   2.64120    32    12    31    33
 C    -2.52270  -0.47610   3.51690    33    37    17    32
 C     1.19570   1.18160   3.77830    34    35    54    23
 C    -0.05090   0.64840   4.02950    35    34    18    36
 C    -0.16120  -0.79980   4.00770    36    37    35    56
 C    -1.45630  -1.31560   3.70910    37    33    38    36
 C    -1.57000  -2.50880   3.02960    38    58    37    30
 C    -4.07700  -1.79300   0.46140    39    40    31    43
 C    -4.58810  -0.53050   0.10960    40    14    61    39
 C    -2.07850  -3.59440   1.14360    41    30    46    42
 C    -2.45900  -3.54160  -0.20750    42    41    49    43
 C    -3.46790  -2.58670  -0.57890    43    42    39    44
 C    -3.39250  -2.01990  -1.90430    44    45    60    43
 C    -2.31370  -2.42930  -2.71230    45    50    62    44
 C    -0.82400  -3.94020   1.56540    46    47    41    58
 C     0.11140  -4.29010   0.69270    47    46    51    48
 C    -0.15610  -4.26740  -0.63230    48    47    49    68
 C    -1.41100  -3.90850  -1.10340    49    50    48    42
 C    -1.35210  -3.31710  -2.32800    50    49    45    70
 C     1.41130  -4.01550   0.93720    51    47    83    53
 C     2.97310  -2.63710   1.90400    52    53    59    81
 C     1.81460  -3.33410   2.08400    53    52    51    57
 C     2.32450   0.42300   3.54600    54    34    55    85
 C     2.26090  -0.95680   3.47220    55    54    59    56
 C     1.01090  -1.60500   3.67650    56    55    57    36
 C     0.82520  -2.85890   2.99180    57    58    53    56
 C    -0.47810  -3.23820   2.69610    58    38    46    57
 C     3.22390  -1.48990   2.61530    59    52    87    55
 C    -3.86670  -0.69990  -2.15790    60    61    64    44
 C    -4.44590   0.00930  -1.15200    61    60    40     3
 C    -1.70660  -1.62170  -3.64080    62    63    45    71
 C    -2.13940  -0.37760  -3.80190    63    62    64    66
 C    -3.18230   0.08520  -3.08590    64    63     1    60
 C     0.89860   1.39140  -3.89600    65    79    67     7
 C    -1.24310   0.59960  -4.07980    66    63    67     6
 C     0.10790   0.33460  -4.23460    67    65    66    73
 C     1.04320  -3.97450  -1.26830    68    83    69    48
 C     1.10760  -3.26900  -2.45680    69    70    68    75
 C    -0.14430  -3.00350  -2.97760    70    71    69    50
 C    -0.37000  -1.92420  -3.76880    71    70    62    73
 C     1.94140  -1.20650  -3.54010    72    78    73    75
 C     0.61870  -0.98470  -4.05680    73    71    67    72
 C     3.24610  -2.34490  -1.72010    74    76    82    75
 C     2.20320  -2.38690  -2.71470    75    69    74    72
 C     4.00090  -1.17430  -1.61850    76    77    84    74
 C     3.76290  -0.06690  -2.38760    77    76    78    94
 C     2.74620  -0.04420  -3.32530    78    77    79    72
 C     2.18310   1.22280  -3.49700    79    65    93    78
 C     4.33450  -1.39150   0.71050    80    84    81    87
 C     3.63760  -2.55010   0.68050    81    80    52    82
 C     3.11810  -3.08210  -0.50080    82    83    81    74
 C     2.01490  -3.85530  -0.30680    83    82    68    51
 C     4.55380  -0.71920  -0.43440    84    80    91    76
 C     3.22940   1.18770   2.82120    85    90    86    54
 C     4.15350   0.65890   1.93240    86    87    85    92
 C     4.11690  -0.71920   1.88410    87    80    86    59
 C     3.76980   2.58690   0.55820    88    89    96    92
 C     2.88800   3.07040   1.48290    89    90    88    20
 C     2.62990   2.38570   2.59950    90    89    23    85
 C     4.62590   0.64200  -0.42430    91    84    94    92
 C     4.43650   1.37600   0.74500    92    91    88    86
 C     2.52940   2.31940  -2.72930    93    95    79    24
 C     4.15640   1.05950  -1.65330    94    95    91    77
 C     3.51330   2.26630  -1.79380    95    93    96    94
 C     3.32000   3.01900  -0.66740    96    95    88    29
