    96
C96-C2-179                                                                      
 C    -0.41770   3.99290   1.41940     1     2    57     5
 C    -0.07430   4.29730   0.09150     2    19    42     1
 C    -1.06910   2.16720   3.37440     3    56    16     4
 C     0.27450   2.48800   3.24830     4     3     9     5
 C     0.64110   3.46720   2.24050     5     6     1     4
 C     1.97010   3.41000   1.69960     6     7    18     5
 C     2.84620   2.45740   2.21350     7    10    20     6
 C     0.68170   0.14990   4.02350     8    11    14     9
 C     1.17250   1.46500   3.66430     9    10     4     8
 C     2.45670   1.52730   3.14500    10     7    13     9
 C     1.52160  -0.93160   3.76280    11    12    94     8
 C     2.77640  -0.78180   3.24810    12    13    29    11
 C     3.25510   0.42620   2.95380    13    12    23    10
 C    -0.68360  -0.15480   4.03010    14    16     8    15
 C    -1.16440  -1.47840   3.67910    15    17    93    14
 C    -1.52640   0.92150   3.77490    16    63     3    14
 C    -2.45540  -1.54800   3.16430    17    90    62    15
 C     2.23010   3.76150   0.34180    18    19    22     6
 C     1.16960   4.14330  -0.43080    19     2    18    33
 C     3.87520   1.87400   1.49160    20    21    23     7
 C     4.05410   2.19160   0.20880    21    20    22    24
 C     3.23840   3.12300  -0.36870    22    21    31    18
 C     4.10880   0.59630   1.90220    23    20    13    26
 C     4.42200   1.23120  -0.69410    24    21    30    25
 C     4.63200  -0.11430  -0.33880    25    24    37    26
 C     4.48110  -0.45890   1.04400    26    23    28    25
 C     3.67360  -2.62870   0.39980    27    28    36    89
 C     3.97490  -1.73420   1.40240    28    27    29    26
 C     3.12950  -1.86340   2.50900    29    12    87    28
 C     3.83440   1.63200  -1.86560    30    34    31    24
 C     3.10520   2.76900  -1.70210    31    30    22    32
 C     1.95190   3.01910  -2.43110    32    33    31    39
 C     1.03270   3.78600  -1.78020    33    41    32    19
 C     3.41370   0.72100  -2.74840    34    30    35    38
 C     3.63340  -0.59660  -2.50300    35    34    52    37
 C     3.80460  -2.29250  -0.93500    36    37    27    50
 C     4.25020  -1.05790  -1.32950    37    36    35    25
 C     2.25640   0.90860  -3.47110    38    34    53    39
 C     1.46280   2.04810  -3.35770    39    38    32    45
 C    -0.84030   2.83020  -2.99580    40    41    48    45
 C    -0.28820   3.72830  -2.07200    41    33    42    40
 C    -0.96090   4.14130  -0.94900    42    43    41     2
 C    -2.21260   3.77010  -0.73050    43    42    58    49
 C    -0.43580   0.58090  -3.96690    44    46    55    45
 C     0.06580   1.89890  -3.62720    45    39    40    44
 C    -1.78200   0.34240  -3.72360    46    86    47    44
 C    -2.64010   1.26710  -3.15100    47    48    46    69
 C    -2.19360   2.49370  -2.75240    48    47    49    40
 C    -2.86470   2.98330  -1.62590    49    43    68    48
 C     2.83350  -2.99080  -1.63750    50    81    36    51
 C     2.16340  -2.49160  -2.75860    51    52    50    84
 C     2.60530  -1.26460  -3.15780    52    51    53    35
 C     1.74840  -0.34530  -3.73800    53    38    52    55
 C    -0.09580  -1.90680  -3.61630    54    85    84    55
 C     0.40240  -0.59040  -3.96780    55    53    44    54
 C    -2.06640   2.73400   2.59970    56    57     3    61
 C    -1.77510   3.62450   1.60530    57    56    58     1
 C    -2.65900   3.53490   0.52630    58    43    59    57
 C    -3.69250   2.61770   0.41160    59    60    68    58
 C    -3.97650   1.72170   1.41700    60    59    61    66
 C    -3.12930   1.84220   2.52280    61    63    56    60
 C    -3.25090  -0.43700   2.98280    62    63    67    17
 C    -2.78070   0.76930   3.27460    63    62    61    16
 C    -4.43230  -1.24300  -0.65660    64    72    80    65
 C    -4.64010   0.10630  -0.31700    65    64    70    66
 C    -4.47700   0.44010   1.06630    66    67    60    65
 C    -4.09740  -0.61680   1.92260    67    73    62    66
 C    -3.83240   2.28250  -0.92250    68    70    59    49
 C    -3.66150   0.59100  -2.49280    69    76    47    70
 C    -4.27350   1.04470  -1.31850    70    68    69    65
 C    -3.25320  -3.14250  -0.34000    71    72    79    75
 C    -4.06720  -2.21140   0.24100    72    73    71    64
 C    -3.87480  -1.90010   1.52080    73    72    67    90
 C    -1.18090  -4.16300  -0.41150    74    95    75    77
 C    -2.23980  -3.78290   0.36510    75    74    71    91
 C    -3.43740  -0.72600  -2.72800    76    80    69    86
 C    -1.05960  -3.79750  -1.76330    77    83    78    74
 C    -1.97740  -3.02160  -2.40700    78    77    79    85
 C    -3.12280  -2.76780  -1.67010    79    80    78    71
 C    -3.84970  -1.63430  -1.83630    80    76    79    64
 C     2.18910  -3.77390  -0.73380    81    82    89    50
 C     0.93290  -4.14840  -0.94220    82    81    95    83
 C     0.26130  -3.73680  -2.06930    83    77    82    84
 C     0.81200  -2.83740  -2.98980    84    83    51    54
 C    -1.49130  -2.05150  -3.33720    85    86    78    54
 C    -2.28300  -0.91380  -3.45360    86    76    46    85
 C     2.06950  -2.75120   2.60340    87    88    94    29
 C     1.76500  -3.64410   1.61500    88    87    89    96
 C     2.63980  -3.54930   0.52580    89    81    27    88
 C    -2.84920  -2.48430   2.24430    90    17    73    91
 C    -1.97380  -3.43590   1.72370    91    90    75    92
 C    -0.64050  -3.48890   2.25750    92    91    96    93
 C    -0.26840  -2.50510   3.26180    93    94    15    92
 C     1.07310  -2.18640   3.38070    94    93    87    11
 C     0.06360  -4.32440   0.10400    95    74    82    96
 C     0.41120  -4.01830   1.42640    96    95    88    92
