    96
C96-C1-155                                                                      
 C    -0.35490   4.07380  -1.38420     1     9     2     4
 C    -1.39440   3.53410  -2.07870     2     1     3     7
 C    -2.57560   3.42370  -1.36360     3    59     2     6
 C    -0.42400   4.32850  -0.00460     4    22     5     1
 C    -1.53490   4.05900   0.73910     5     4     6    20
 C    -2.65030   3.68250  -0.00150     6    65     3     5
 C    -1.07120   2.57290  -3.08330     7     8     2    11
 C    -2.04720   1.60600  -3.28960     8    24    58     7
 C     0.93740   3.83140  -1.70530     9     1    14    10
 C     1.33730   2.93260  -2.70850    10     9    17    11
 C     0.28300   2.21390  -3.37490    11     7    10    12
 C     0.54990   0.85030  -3.80540    12    13    23    11
 C     1.83040   0.36050  -3.58050    13    18    25    12
 C     1.66810   4.04210  -0.56250    14    15     9    22
 C     2.85970   3.48680  -0.41060    15    14    96    16
 C     3.37240   2.69620  -1.39410    16    15    39    17
 C     2.61590   2.36930  -2.52750    17    18    16    10
 C     2.83610   1.09530  -2.98960    18    17    13    41
 C    -2.35600   2.68910   2.48290    19    74    64    20
 C    -1.32960   3.52390   2.04470    20    19     5    92
 C     1.12330   3.73300   1.78570    21    22    95    92
 C     0.82910   4.23610   0.50650    22     4    14    21
 C    -0.47760  -0.14370  -3.89800    23    24    12    27
 C    -1.76820   0.30970  -3.66140    24     8    44    23
 C     2.11100  -0.98220  -3.37200    25    13    26    36
 C     1.12970  -1.96340  -3.35720    26    25    31    27
 C    -0.22020  -1.55400  -3.65960    27    28    26    23
 C    -1.30910  -2.35860  -3.16580    28    29    43    27
 C    -0.97470  -3.44600  -2.36430    29    32    45    28
 C     2.60300  -3.12160  -1.70790    30    38    33    31
 C     1.42000  -3.09140  -2.52100    31    32    26    30
 C     0.31120  -3.77250  -2.04740    32    29    35    31
 C     2.45580  -3.71690  -0.43170    33    34    84    30
 C     1.29500  -4.25190   0.00720    34    35    33    54
 C     0.25580  -4.35280  -0.79830    35    34    53    32
 C     3.28830  -1.05580  -2.63960    36    38    41    25
 C     4.27180  -1.72920  -0.62230    37    83    42    38
 C     3.55590  -2.09540  -1.77230    38    36    30    37
 C     4.23550   1.82310  -0.76590    39    40    16    87
 C     4.46070   0.56770  -1.27940    40    39    42    41
 C     3.73910   0.22850  -2.40710    41    18    36    40
 C     4.69030  -0.44170  -0.37100    42    37    40    90
 C    -2.58810  -1.79800  -2.91560    43    44    47    28
 C    -2.79360  -0.48240  -3.18400    44    43    24    57
 C    -1.77770  -3.87160  -1.32120    45    46    53    29
 C    -2.93080  -3.27470  -1.05890    46    45    47    49
 C    -3.37500  -2.27180  -1.85490    47    46    55    43
 C    -2.60390  -2.60350   2.35320    48    50    67    79
 C    -3.35230  -3.08470   0.22360    49    46    66    50
 C    -2.51920  -3.46060   1.28770    50    48    49    51
 C    -1.28670  -4.09290   1.05510    51    50    53    52
 C    -0.15280  -3.83620   1.89980    52    54    78    51
 C    -0.99770  -4.33720  -0.30310    53    35    45    51
 C     1.10750  -3.99010   1.34900    54    75    34    52
 C    -4.20040  -1.47230  -1.07620    55    56    66    47
 C    -4.39000  -0.13960  -1.35200    56    55    57    61
 C    -3.68440   0.30970  -2.47660    57    58    44    56
 C    -3.23890   1.58240  -2.59230    58    59    57     8
 C    -3.50260   2.46400  -1.62410    59    58     3    62
 C    -4.50760   0.25910   1.07150    60    63    68    61
 C    -4.59690   0.76190  -0.27140    61    62    56    60
 C    -4.15600   2.08080  -0.48100    62    65    59    61
 C    -3.93140   1.13940   2.01280    63    64    71    60
 C    -3.48780   2.39690   1.73240    64    65    63    19
 C    -3.62530   2.87440   0.50050    65    64     6    62
 C    -4.17020  -1.96630   0.21520    66    68    55    49
 C    -3.46160  -1.51320   2.36520    67    70    48    68
 C    -4.27480  -1.12230   1.29620    68    66    67    60
 C    -1.66350  -1.03440   3.62100    69    70    79    72
 C    -2.88010  -0.59480   3.17990    70    71    67    69
 C    -3.11220   0.70180   3.01800    71    70    63    74
 C    -0.61830  -0.16610   3.93250    72    69    81    73
 C    -0.86600   1.24750   3.74460    73    74    91    72
 C    -2.12680   1.61090   3.29520    74    71    19    73
 C     2.22330  -3.32410   1.76000    75    54    84    76
 C     2.19780  -2.34720   2.76090    76    75    86    77
 C     0.91290  -2.07430   3.35200    77    76    78    81
 C    -0.23400  -2.86500   2.94700    78    79    52    77
 C    -1.48630  -2.30750   3.13390    79    69    78    48
 C     1.69420   0.21030   3.66610    80    85    81    93
 C     0.67780  -0.72220   3.83160    81    80    72    77
 C     4.10730  -1.36510   1.58000    82    83    90    86
 C     3.99230  -2.29360   0.59090    83    84    82    37
 C     3.09070  -3.25360   0.68410    84    83    33    75
 C     2.91650  -0.08800   3.11970    85    80    86    88
 C     3.20520  -1.35130   2.65760    86    85    82    76
 C     4.17610   2.05860   0.60540    87    89    96    39
 C     3.45690   1.06320   2.57580    88    89    85    94
 C     4.31720   1.02500   1.49560    89    90    87    88
 C     4.61120  -0.21580   1.00080    90    89    82    42
 C     0.19310   2.13260   3.41960    91    93    73    92
 C    -0.00780   3.28380   2.55490    92    20    21    91
 C     1.46010   1.57360   3.45970    93    94    91    80
 C     2.53810   2.08050   2.77290    94    93    95    88
 C     2.40620   3.14830   1.91090    95    94    96    21
 C     3.27760   3.08230   0.81880    96    15    87    95
