    96
C96-C2v-110                                                                     
 C    -1.21400   3.37840  -2.32020     1    16    29     2
 C     0.00990   2.83870  -2.75800     2     1     7    14
 C     3.26230   3.02570  -1.09930     3    61    26     6
 C     3.56350   0.68510  -2.32280     4     8    59     5
 C     2.46480   1.44480  -2.74580     5     4     6    13
 C     2.36930   2.74960  -2.17190     6     7     3     5
 C     1.16050   3.43160  -2.16640     7     6    27     2
 C     3.55870  -0.68260  -2.32190     8     4    64    11
 C    -2.42680  -1.38020  -2.84770     9    10    38    19
 C    -2.39050  -2.66240  -2.35480    10    15     9    86
 C     2.45590  -1.43430  -2.74430    11     8    23    12
 C     1.28530  -0.72700  -3.23620    12    18    11    13
 C     1.28760   0.74630  -3.23720    13    14     5    12
 C     0.03280   1.47150  -3.25670    14    13    20     2
 C    -1.22490  -3.36090  -2.33040    15    10    92    17
 C    -2.38370   2.68470  -2.34750    16     1    21    35
 C     0.00200  -2.81980  -2.76240    17    15    22    18
 C     0.02840  -1.44970  -3.25570    18    12    19    17
 C    -1.22510  -0.71020  -3.30070    19     9    20    18
 C    -1.22460   0.74070  -3.30010    20    21    19    14
 C    -2.42700   1.40350  -2.84660    21    16    39    20
 C     1.15270  -3.42150  -2.17280    22    23    24    17
 C     2.36480  -2.73950  -2.17080    23    22    25    11
 C     0.92830  -4.33460  -1.10480    24    91    96    22
 C     3.25640  -3.03120  -1.10230    25    65    94    23
 C     2.83270   3.67330   0.02510    26    28    48     3
 C     0.93440   4.32580  -1.08690    27    30    28     7
 C     1.71660   4.30050   0.03240    28    26    41    27
 C    -1.36380   4.30920  -1.30930    29    30    33     1
 C    -0.27710   4.68720  -0.65380    30    29    27    42
 C    -4.29850   1.11660   1.35670    31    81    32    56
 C    -4.10020   2.31650   0.73060    32    31    43    37
 C    -2.52870   4.10630  -0.65610    33    29    35    34
 C    -2.52240   4.08760   0.71700    34    43    40    33
 C    -3.22480   3.15660  -1.31830    35    33    37    16
 C    -4.31630   1.12510  -1.31740    36    80    37    39
 C    -4.11080   2.32070  -0.69410    37    36    35    32
 C    -3.50630  -0.66470  -2.35880    38    39     9    88
 C    -3.50050   0.68270  -2.36170    39    38    21    36
 C    -1.35150   4.29280   1.37010    40    42    34    44
 C     0.94210   4.33600   1.15600    41    42    28    46
 C    -0.26660   4.69090   0.72300    42    40    41    30
 C    -3.20980   3.13530   1.37550    43    34    32    53
 C    -1.21190   3.36050   2.38010    44    53    40    45
 C     0.02100   2.82610   2.80550    45    44    46    54
 C     1.17560   3.42240   2.21930    46    47    41    45
 C     2.38420   2.73730   2.20490    47    46    48    50
 C     3.27820   3.01570   1.13550    48    49    26    47
 C     4.22130   2.18740   0.69260    49    52    48    61
 C     2.47280   1.42650   2.77010    50    51    47    55
 C     3.56960   0.67140   2.33900    51    71    52    50
 C     4.47110   1.05980   1.34670    52    49    62    51
 C    -2.37860   2.66670   2.41170    53    44    57    43
 C     0.04400   1.45360   3.29480    54    55    58    45
 C     1.29820   0.72510   3.26690    55    54    50    69
 C    -3.48550   0.66890   2.40240    56    74    57    31
 C    -2.41410   1.38520   2.89920    57    53    56    58
 C    -1.21130   0.71630   3.34270    58    57    67    54
 C     4.47750   1.06840  -1.34310    59    61    60     4
 C     4.95240  -0.00890  -0.68920    60    59    64    62
 C     4.22330   2.19240  -0.69090    61    59     3    49
 C     4.94380  -0.02140   0.69990    62    63    52    60
 C     4.46620  -1.09140   1.35940    63    66    62    71
 C     4.46610  -1.08410  -1.34210    64    65    60     8
 C     4.21240  -2.20260  -0.67840    65    64    25    66
 C     4.21690  -2.21830   0.70500    66    63    72    65
 C    -1.21100  -0.73410   3.33530    67    75    58    68
 C     0.04120  -1.47500   3.28430    68    69    67    78
 C     1.29840  -0.75070   3.26320    69    68    70    55
 C     2.47040  -1.45800   2.77150    70    71    73    69
 C     3.56820  -0.69820   2.34890    71    51    63    70
 C     3.27130  -3.05200   1.13370    72    66    94    73
 C     2.37420  -2.76770   2.20230    73    79    72    70
 C    -3.49290  -0.67920   2.39310    74    56    75    83
 C    -2.41580  -1.39600   2.88020    75    76    74    67
 C    -2.38210  -2.67400   2.38110    76    77    75    84
 C    -1.21680  -3.37740   2.35510    77    76    93    78
 C     0.01310  -2.84480   2.78730    78    77    79    68
 C     1.16160  -3.44780   2.20030    79    73    95    78
 C    -4.72800   0.01250  -0.65770    80    36    88    81
 C    -4.71540   0.00230   0.70310    81    83    31    80
 C    -4.11150  -2.31170   0.72140    82    83    84    87
 C    -4.31730  -1.11810   1.35210    83    81    82    74
 C    -3.21960  -3.14340   1.34810    84    89    82    76
 C    -2.53680  -4.09270  -0.67470    85    86    92    89
 C    -3.23350  -3.13690  -1.32950    86    85    87    10
 C    -4.12070  -2.30400  -0.70300    87    88    86    82
 C    -4.33140  -1.10630  -1.31900    88    80    87    38
 C    -2.52500  -4.09820   0.70020    89    84    93    85
 C    -0.28220  -4.70590   0.69160    90    93    95    91
 C    -0.28800  -4.70170  -0.68680    91    92    24    90
 C    -1.36980  -4.30630  -1.33280    92    91    85    15
 C    -1.36100  -4.31800   1.35100    93    90    89    77
 C     2.83150  -3.70180   0.01000    94    96    25    72
 C     0.93150  -4.35020   1.12530    95    90    96    79
 C     1.71380  -4.32160   0.01230    96    94    95    24
