    96
C96-D2-21                                                                       
 C     2.66820   3.59160  -0.57570     1    57     2     4
 C     3.39770   3.19460   0.55210     2     3    45     1
 C     4.35310   2.25200   0.54280     3     2     6    36
 C     2.84230   2.77320  -1.75480     4     5     8     1
 C     3.84850   1.83110  -1.70430     5    12     4     6
 C     4.68160   1.62350  -0.60690     6    27     3     5
 C     0.59920   3.21220  -2.35490     7    16     8    56
 C     1.72610   2.47560  -2.60250     8     7     4    10
 C     0.15570   0.70520  -3.52890     9    18    22    10
 C     1.52590   1.17830  -3.24430    10    11     8     9
 C     2.58460   0.24160  -3.08750    11    14    12    10
 C     3.74640   0.62730  -2.36920    12     5    28    11
 C     0.95810  -1.59200  -3.29720    13    15    14    22
 C     2.30120  -1.14600  -3.12090    14    11    30    13
 C     0.65770  -2.82820  -2.71340    15    24    31    13
 C    -0.64840   2.82210  -2.74700    16     7    63    18
 C    -2.29470   1.13350  -3.14510    17    20    25    18
 C    -0.95260   1.58200  -3.31990    18    16    17     9
 C    -3.74400  -0.64610  -2.38310    19    89    96    20
 C    -2.57840  -0.25650  -3.09760    20    17    19    21
 C    -1.51730  -1.19390  -3.23910    21    20    23    22
 C    -0.14870  -0.71860  -3.52320    22    13     9    21
 C    -1.72400  -2.48820  -2.58960    23    24    90    21
 C    -0.59390  -3.22080  -2.33530    24    15    23    85
 C    -3.19420   1.96780  -2.42440    25    94    62    17
 C     4.25630  -1.53990  -1.67160    26    28    30    32
 C     5.10290   0.34270  -0.57750    27     6    28    34
 C     4.57610  -0.24640  -1.68720    28    26    27    12
 C     2.76890  -3.09420  -1.73910    29    31    30    37
 C     3.18810  -1.97760  -2.38670    30    29    26    14
 C     1.54170  -3.50880  -1.92080    31    29    43    15
 C     4.36360  -2.28390  -0.51100    32    37    33    26
 C     4.67240  -1.65000   0.63800    33    32    34    38
 C     5.08870  -0.36190   0.61400    34    33    35    27
 C     4.56970   0.22750   1.72690    35    36    34    47
 C     4.25630   1.52340   1.71450    36    35    46     3
 C     3.40430  -3.22390  -0.52270    37    32    29    40
 C     3.84380  -1.84780   1.73610    38    47    39    33
 C     2.82940  -2.78430   1.77440    39    38    49    40
 C     2.65190  -3.60960   0.59680    40    41    37    39
 C     1.40740  -4.16940   0.33840    41    42    40    43
 C     0.43270  -4.05390   1.27340    42    41    87    48
 C     0.87360  -4.16170  -0.95500    43    31    85    41
 C     1.54850   3.50690   1.93940    44    45    58    55
 C     2.77320   3.07920   1.77540    45    44    46     2
 C     3.19900   1.97070   2.43370    46    36    45    52
 C     3.74340  -0.64720   2.40980    47    38    35    51
 C     0.57500  -3.20000   2.36340    48    68    49    42
 C     1.70900  -2.47460   2.61510    49    48    39    50
 C     1.51290  -1.17630   3.25970    50    51    49    53
 C     2.57990  -0.24560   3.11780    51    47    52    50
 C     2.29780   1.14550   3.15840    52    51    46    54
 C     0.14220  -0.69610   3.53650    53    69    70    50
 C     0.95690   1.60140   3.32150    54    55    52    70
 C     0.65460   2.83880   2.73630    55    75    44    54
 C     0.45040   4.06230  -1.26410    56    57    61     7
 C     1.42490   4.16200  -0.32870    57    56     1    58
 C     0.88840   4.15340   0.96220    58    44    59    57
 C    -0.44290   4.07020   1.25280    59    60    58    75
 C    -1.41120   4.17110   0.30860    60    59    66    61
 C    -0.88250   4.14850  -0.98610    61    63    56    60
 C    -2.76600   3.08830  -1.77850    62    63    25    67
 C    -1.54160   3.50250  -1.96200    63    62    61    16
 C    -3.84610   1.85510   1.69410    64    76    65    80
 C    -2.83530   2.79460   1.74260    65    64    74    66
 C    -2.65970   3.60870   0.55760    66    60    67    65
 C    -3.40510   3.21430  -0.56300    67    81    62    66
 C    -0.67390  -2.80700   2.73580    68    48    82    69
 C    -0.97010  -1.56580   3.31450    69    68    71    53
 C    -0.15660   0.72970   3.53520    70    54    53    73
 C    -2.30970  -1.11730   3.12940    71    72    84    69
 C    -2.58540   0.27370   3.08780    72    71    76    73
 C    -1.52390   1.20810   3.24230    73    72    74    70
 C    -1.71960   2.50370   2.59420    74    75    65    73
 C    -0.59150   3.23380   2.35350    75    55    74    59
 C    -3.74590   0.65460   2.36480    76    64    78    72
 C    -4.26390  -1.51430   1.68020    77    78    84    91
 C    -4.57610  -0.21910   1.68660    78    77    79    76
 C    -5.09780   0.36820   0.57440    79    80    78    95
 C    -4.67940   1.65610   0.59370    80    81    79    64
 C    -4.36150   2.27780  -0.56050    81    67    80    94
 C    -1.55860  -3.49060   1.94560    82    83    87    68
 C    -2.78630  -3.07820   1.76170    83    82    84    92
 C    -3.19850  -1.95150   2.39980    84    77    83    71
 C    -0.45710  -4.07920  -1.24730    85    86    43    24
 C    -1.43260  -4.17840  -0.31570    86    85    93    87
 C    -0.90090  -4.15190   0.97680    87    82    42    86
 C    -4.69200  -1.64000  -0.61480    88    91    95    89
 C    -3.85640  -1.84900  -1.71290    89    90    19    88
 C    -2.84700  -2.79110  -1.74850    90    89    23    93
 C    -4.37300  -2.27620   0.53160    91    92    88    77
 C    -3.42620  -3.22320   0.54810    92    91    83    93
 C    -2.67920  -3.61460  -0.56950    93    86    92    90
 C    -4.26790   1.53180  -1.72090    94    96    25    81
 C    -5.09710  -0.34830  -0.61070    95    88    96    79
 C    -4.58100   0.23860  -1.71990    96    94    95    19
