    96
C96-C1-27                                                                       
 C    -4.16100  -2.38950   0.23070     1     2     6    58
 C    -4.34400  -1.59470   1.29620     2     1     3    21
 C    -4.83110  -0.34880   1.11330     3     2     4    59
 C    -4.22050   0.42410   2.04440     4     5     3    11
 C    -3.97090   1.70450   1.77270     5     4    10    50
 C    -3.16540  -3.29130   0.25000     6     1    61    27
 C     0.96340   3.65490   1.96430     7    19     8    32
 C    -0.34500   3.38750   2.32640     8     7    30    17
 C    -1.89920   1.64570   3.09510     9    10    17    13
 C    -2.86550   2.30480   2.29190    10     5    31     9
 C    -3.30320  -0.30520   2.76760    11     4    21    13
 C    -1.03360  -0.65570   3.51810    12    13    15    25
 C    -2.12550   0.23440   3.30410    13    11    12     9
 C     1.35850  -0.90040   3.52990    14    26    44    15
 C     0.26230  -0.05200   3.68620    15    14    12    16
 C     0.52230   1.36350   3.50050    16    17    18    15
 C    -0.59090   2.20620   3.13530    17     9    16     8
 C     1.87220   1.76040   3.14820    18    19    45    16
 C     2.01740   2.90980   2.37250    19     7    39    18
 C    -2.33330  -2.49800   2.37220    20    21    25    27
 C    -3.39640  -1.60610   2.30830    21    11     2    20
 C     1.36240  -4.04960   1.18680    22    88    96    23
 C     0.10330  -3.82860   1.79300    23    29    22    24
 C     0.03640  -2.81450   2.80930    24    26    25    23
 C    -1.14850  -2.06700   3.05880    25    24    20    12
 C     1.25230  -2.21280   3.12110    26    89    14    24
 C    -2.25240  -3.47450   1.31740    27    29     6    20
 C    -0.77130  -4.31740  -0.36920    28    92    63    29
 C    -1.02960  -4.07020   1.00050    29    27    23    28
 C    -1.32660   3.86450   1.42290    30    31    34     8
 C    -2.55100   3.32220   1.42500    31    30    10    49
 C     1.32570   4.22650   0.75330    32    33    40     7
 C     0.37510   4.47260  -0.13650    33    32    34    36
 C    -0.91840   4.33400   0.17520    34    33    47    30
 C     1.62870   2.65410  -2.83370    35    83    37    53
 C     0.59540   4.14510  -1.44410    36    33    37    52
 C     1.79970   3.61220  -1.85430    37    36    35    43
 C     3.94390   2.14050   1.26920    38    39    46    41
 C     3.02040   3.07390   1.43050    39    38    40    19
 C     2.55540   3.78990   0.37420    40    39    32    43
 C     4.39830   1.82380   0.01070    41    79    38    42
 C     3.82250   2.40280  -1.14220    42    41    43    82
 C     2.88470   3.45340  -0.95590    43    40    37    42
 C     2.64180  -0.47510   3.21440    44    45    84    14
 C     2.92920   0.83620   2.99800    45    44    46    18
 C     3.96260   1.04310   2.06960    46    38    86    45
 C    -1.59160   3.98740  -0.98290    47    48    52    34
 C    -2.78680   3.35460  -0.97830    48    47    49    56
 C    -3.34610   3.17200   0.28620    49    50    48    31
 C    -4.24960   2.22350   0.53110    50    49    51     5
 C    -4.68750   1.40240  -0.44590    51    59    50    57
 C    -0.64630   3.78030  -1.94340    52    47    54    36
 C     0.37570   2.23220  -3.28340    53    54    64    35
 C    -0.82000   2.76520  -2.87220    54    53    52    55
 C    -1.99700   1.97680  -2.89830    55    54    56    66
 C    -3.04840   2.36730  -1.98510    56    57    48    55
 C    -4.01830   1.43370  -1.67090    57    68    56    51
 C    -4.29490  -1.88670  -1.05020    58    60    62     1
 C    -5.04030   0.13210  -0.16830    59    51    60     3
 C    -4.67140  -0.62240  -1.23380    60    58    59    68
 C    -2.76850  -3.39950  -1.06310    61    63    62     6
 C    -3.34300  -2.43440  -1.83330    62    58    61    71
 C    -1.58650  -3.85310  -1.34570    63    61    28    72
 C     0.48210   0.92350  -3.68200    64    53    73    65
 C    -0.59440   0.03820  -3.70220    65    64    69    66
 C    -1.90040   0.57650  -3.35000    66    67    65    55
 C    -2.91640  -0.34210  -2.94400    67    68    66    71
 C    -3.98140   0.14470  -2.15590    68    57    60    67
 C    -0.24040  -1.35950  -3.55980    69    70    65    76
 C    -1.28520  -2.20680  -3.09730    70    72    71    69
 C    -2.59480  -1.72980  -2.81600    71    70    62    67
 C    -0.85340  -3.33470  -2.38500    72    78    63    70
 C     1.80090   0.55900  -3.52930    73    75    64    83
 C     3.36940  -0.89790  -2.64520    74    93    81    75
 C     2.17610  -0.74840  -3.35750    75    73    74    76
 C     1.17220  -1.74800  -3.35270    76    75    77    69
 C     1.50740  -2.93290  -2.60200    77    78    94    76
 C     0.43760  -3.65690  -2.12920    78    72    77    92
 C     4.81230   0.52420   0.09430    79    80    41    86
 C     4.67670  -0.29320  -0.97010    80    79    90    81
 C     4.06300   0.18090  -2.09790    81    80    82    74
 C     3.63640   1.49400  -2.21880    82    83    81    42
 C     2.51010   1.63540  -2.99870    83    35    82    73
 C     3.31680  -1.50200   2.57170    84    89    44    85
 C     4.27160  -1.30270   1.57210    85    86    84    91
 C     4.57090   0.02410   1.36310    86    85    46    79
 C     3.36060  -3.23850   0.49780    87    91    95    88
 C     2.50970  -3.44060   1.56940    88    89    22    87
 C     2.46030  -2.54860   2.55500    89    88    84    26
 C     4.40680  -1.61940  -0.79870    90    80    91    93
 C     4.24290  -2.18060   0.46340    91    87    90    85
 C     0.46140  -4.31820  -0.91410    92    96    28    78
 C     3.61680  -2.00950  -1.88110    93    94    74    90
 C     2.71330  -3.03470  -1.83570    94    93    95    77
 C     2.67230  -3.70290  -0.60350    95    96    87    94
 C     1.53040  -4.27010  -0.15720    96    92    95    22
