    96
C96-C1-131                                                                      
 C    -0.45010  -3.82810   1.63910     1     6     2    59
 C    -1.52710  -3.92610   0.82500     2     1     3     9
 C    -2.65560  -3.30850   1.33510     3     4     2    58
 C    -3.64460  -2.88470   0.52570     4     3     5    18
 C    -3.46800  -2.95020  -0.81760     5     4    19    10
 C     0.81050  -3.96520   1.17130     6     1    70     7
 C     1.13680  -4.07180  -0.19140     7     6    14     8
 C     0.03020  -3.97540  -1.10660     8     9     7    12
 C    -1.29620  -3.98700  -0.58510     9    10     8     2
 C    -2.30670  -3.42770  -1.35510    10     5     9    25
 C     1.55120  -2.85550  -2.60550    11    26    12    13
 C     0.25680  -3.28420  -2.36330    12    11    24     8
 C     2.62110  -3.05000  -1.74210    13    14    11    96
 C     2.43470  -3.62360  -0.51090    14    13    15     7
 C     3.27870  -3.10850   0.47930    15    71    94    14
 C    -4.77400  -0.85350   0.32220    16    18    32    17
 C    -4.62870  -0.92580  -1.04340    17    19    21    16
 C    -4.25100  -1.81190   1.10490    18    16     4    41
 C    -3.94260  -1.94590  -1.59660    19    17     5    20
 C    -3.05890  -1.74570  -2.62100    20    19    25    23
 C    -4.45630   0.32590  -1.53220    21    17    33    22
 C    -3.59240   0.60770  -2.61050    22    21    36    23
 C    -2.84390  -0.48840  -3.18510    23    20    29    22
 C    -0.78710  -2.54670  -3.02440    24    25    12    28
 C    -2.05450  -2.69860  -2.50910    25    24    10    20
 C     1.82660  -1.73990  -3.36520    26    11    89    27
 C     0.83490  -0.91210  -3.88750    27    26    92    28
 C    -0.52840  -1.31610  -3.74530    28    27    24    29
 C    -1.56220  -0.29520  -3.76300    29    30    23    28
 C    -1.11670   1.03050  -3.78810    30    93    35    29
 C    -3.95750   2.33910  -0.43400    31    33    37    34
 C    -4.69160   0.43540   0.73230    32    16    33    39
 C    -4.58460   1.16480  -0.43740    33    31    32    21
 C    -3.20470   2.73210  -1.50110    34    31    50    36
 C    -1.78720   2.06850  -3.18090    35    36    30    48
 C    -2.99830   1.88640  -2.58600    36    35    34    22
 C    -3.44400   2.84890   0.71280    37    31    43    38
 C    -3.46770   2.10700   1.90030    38    42    37    39
 C    -4.05290   0.82980   1.93250    39    38    32    40
 C    -3.42910  -0.20030   2.73690    40    41    55    39
 C    -3.58740  -1.50400   2.26630    41    58    18    40
 C    -2.38420   2.34360   2.69680    42    38    45    54
 C    -2.39290   3.67170   0.33680    43    44    50    37
 C    -1.33230   3.93590   1.14830    44    43    45    52
 C    -1.40490   3.26210   2.37140    45    47    42    44
 C     0.88420   3.27020   2.59720    46    47    69    53
 C    -0.30040   2.89840   3.04110    47    46    45    60
 C    -0.84090   2.99770  -2.74800    48    83    49    35
 C    -0.98570   3.77060  -1.60980    49    48    50    51
 C    -2.22840   3.59910  -1.02320    50    43    49    34
 C     0.16920   4.09560  -0.83570    51    49    52    86
 C    -0.05360   4.20340   0.58190    52    53    44    51
 C     1.03280   3.91960   1.38770    53    88    46    52
 C    -1.79070   1.35860   3.48190    54    60    55    42
 C    -2.22780   0.05070   3.49140    55    54    40    56
 C    -1.19350  -0.94550   3.72120    56    57    55    63
 C    -1.46820  -2.22260   3.15670    57    59    58    56
 C    -2.62280  -2.46070   2.45120    58    41    57     3
 C    -0.41170  -3.01090   2.77980    59    68    57     1
 C    -0.47800   1.70760   3.69470    60    47    54    62
 C     1.88210   1.26280   3.54430    61    65    69    62
 C     0.57300   0.81670   3.92390    62    60    63    61
 C     0.21850  -0.56510   3.93430    63    62    67    56
 C     3.88530   0.76350   2.26350    64    74    82    65
 C     2.90090   0.34470   3.20670    65    66    61    64
 C     2.60560  -1.03540   3.24080    66    65    72    67
 C     1.28130  -1.47370   3.59090    67    68    66    63
 C     0.88090  -2.68180   3.00870    68    59    70    67
 C     1.96460   2.51410   2.88130    69    46    78    61
 C     1.63030  -3.36330   2.08550    70    71     6    68
 C     2.83220  -2.94830   1.76010    71    70    72    15
 C     3.35570  -1.83830   2.33950    72    71    75    66
 C     4.74310   0.56270   0.17870    73    74    81    77
 C     4.52380  -0.07030   1.38780    74    75    64    73
 C     4.26330  -1.37480   1.42360    75    74    72    94
 C     4.12630   0.60810  -2.04800    76    90    77    79
 C     4.67820  -0.14010  -1.01690    77    76    73    95
 C     2.86900   2.82050   1.90960    78    82    69    88
 C     3.63280   1.90430  -1.89840    79    84    80    76
 C     3.65810   2.58540  -0.70420    80    79    81    87
 C     4.26630   1.85580   0.32690    81    82    73    80
 C     3.82150   1.96450   1.60920    82    78    81    64
 C     0.37660   2.58740  -3.17370    83    48    85    93
 C     2.59080   2.07640  -2.77860    84    79    85    91
 C     1.54950   2.95730  -2.53830    85    83    84    86
 C     1.49200   3.70620  -1.32310    86    85    87    51
 C     2.58660   3.48670  -0.41070    87    88    80    86
 C     2.27600   3.61030   0.93880    88    53    78    87
 C     3.06390  -1.28870  -2.96000    89    90    96    26
 C     3.34820   0.02670  -3.01100    90    89    91    76
 C     2.41810   0.88650  -3.47810    91    90    92    84
 C     1.19030   0.46000  -3.95310    92    93    91    27
 C     0.20160   1.37720  -3.84550    93    92    30    83
 C     4.21160  -2.11400   0.26080    94    75    15    95
 C     4.39690  -1.52910  -0.98030    95    94    96    77
 C     3.57220  -2.06210  -1.96550    96    89    13    95
