    96
C96-C2-127                                                                      
 C    -4.48150  -1.60660   0.08550     1     5    26    55
 C    -2.13020  -1.59410   3.34610     2     3    59     6
 C    -3.22970  -1.70840   2.54830     3     2     4    53
 C    -3.11610  -2.73930   1.62600     4     5     3     8
 C    -3.71830  -2.65310   0.40830     5     1    18     4
 C    -0.99210  -2.41370   3.23350     6    14     7     2
 C    -0.84050  -3.37320   2.24930     7     8     6    10
 C    -1.96680  -3.50240   1.46540     8    19     7     4
 C     1.58190  -2.97780   2.35900     9    11    12    10
 C     0.45940  -3.65150   1.73820    10     7     9    20
 C     2.75840  -2.86570   1.64770    11     9    23    95
 C     1.39530  -1.96440   3.35290    12    14     9    13
 C     2.30780  -0.84460   3.46600    13    15    94    12
 C     0.07840  -1.74150   3.73470    14     6    62    12
 C     1.72660   0.37550   3.84390    15    61    78    13
 C    -1.64850  -3.01540  -2.39110    16    17    31    22
 C    -2.86050  -2.77870  -1.81220    17    16    18    25
 C    -2.94070  -3.27200  -0.51410    18     5    19    17
 C    -1.86570  -3.84480   0.14560    19     8    21    18
 C     0.55450  -4.05200   0.33630    20    24    21    10
 C    -0.64770  -4.08150  -0.43200    21    19    22    20
 C    -0.60650  -3.69150  -1.76690    22    44    16    21
 C     2.86170  -3.31940   0.34000    23    90    11    24
 C     1.77380  -3.82340  -0.36790    24    23    20    43
 C    -3.59200  -1.63420  -2.18900    25    17    26    28
 C    -4.46470  -1.11360  -1.20610    26    27     1    25
 C    -4.76260   0.20260  -1.08770    27    30    26    48
 C    -2.97050  -0.70230  -3.10510    28    29    32    25
 C    -3.34230   0.63110  -2.92230    29    30    35    28
 C    -4.21430   1.06970  -1.95570    30    27    49    29
 C    -1.08760  -2.14360  -3.30440    31    37    16    32
 C    -1.66330  -0.93060  -3.64620    32    31    28    33
 C    -0.71990   0.13210  -3.95200    33    34    32    40
 C    -1.18600   1.43570  -3.65140    34    35    36    33
 C    -2.44830   1.65490  -3.15230    35    34    29    50
 C    -0.26410   2.38850  -3.27680    36    42    34    52
 C     0.25950  -2.36480  -3.31460    37    31    39    44
 C     2.44540  -1.62590  -3.18380    38    39    84    45
 C     1.17900  -1.40650  -3.67690    39    38    37    40
 C     0.72150  -0.09530  -3.95520    40    39    41    33
 C     1.66370   0.96480  -3.63770    41    42    85    40
 C     1.08280   2.17120  -3.27610    42    36    80    41
 C     1.75800  -3.47440  -1.75920    43    44    45    24
 C     0.54920  -3.35250  -2.37120    44    22    43    37
 C     2.74390  -2.65690  -2.27970    45    91    43    38
 C    -4.38530   1.72390   0.66910    46    48    47    56
 C    -3.87330   2.61900  -0.21850    47    49    46    70
 C    -4.86200   0.52770   0.24470    48    55    46    27
 C    -3.80420   2.29320  -1.53490    49    50    30    47
 C    -2.73710   2.68660  -2.25070    50    49    51    35
 C    -1.75370   3.49780  -1.71440    51    52    50    69
 C    -0.54430   3.36970  -2.32590    52    71    51    36
 C    -3.97350  -0.54460   2.22970    53    55     3    54
 C    -3.46770   0.73910   2.67470    54    56    58    53
 C    -4.65300  -0.57870   0.99960    55    48     1    53
 C    -3.68590   1.83680   1.83840    56    46    54    63
 C    -1.39370   1.94700   3.37170    57    60    65    58
 C    -2.30630   0.82590   3.47180    58    59    54    57
 C    -1.71620  -0.38920   3.84060    59    62     2    58
 C    -0.07210   1.73030   3.75020    60    68    61    57
 C     0.40560   0.50750   4.13430    61    62    15    60
 C    -0.40040  -0.52730   4.13130    62    61    59    14
 C    -2.75860   2.86970   1.67830    63    65    70    56
 C    -0.45350   3.64350   1.77780    64    67    65    73
 C    -1.58240   2.97010   2.38920    65    63    57    64
 C     1.97440   3.49680   1.50440    66    74    67    76
 C     0.84710   3.36140   2.28630    67    66    68    64
 C     1.00680   2.40290   3.26650    68    60    67    78
 C    -1.77760   3.83720  -0.32250    69    70    73    51
 C    -2.86600   3.32980   0.37500    70    47    63    69
 C     0.61350   3.70860  -1.72470    71    52    80    72
 C     0.65400   4.08590  -0.38450    72    74    71    73
 C    -0.55280   4.05470   0.37730    73    69    72    64
 C     1.87660   3.83950   0.18110    74    72    66    82
 C     3.72200   2.65830   0.43240    75    79    82    76
 C     3.12960   2.73210   1.65670    76    75    77    66
 C     3.24370   1.69460   2.57590    77    78    76    93
 C     2.14550   1.58940   3.37470    78    77    15    68
 C     4.48100   1.61050   0.09800    79    75    87    96
 C     1.65240   3.03990  -2.36710    80    81    42    71
 C     2.86470   2.80390  -1.79410    81    80    82    88
 C     2.95270   3.28370  -0.49240    82    75    74    81
 C     4.20440  -1.04880  -1.97310    83    86    91    84
 C     3.33720  -0.60210  -2.94390    84    83    38    85
 C     2.97440   0.73530  -3.10320    85    84    41    88
 C     4.74680  -0.18570  -1.09310    86    83    87    92
 C     4.46150   1.13740  -1.20200    87    86    79    88
 C     3.59290   1.66150  -2.18230    88    81    87    85
 C     4.38150  -1.72810   0.65300    89    92    90    95
 C     3.87930  -2.61340  -0.24950    90    91    89    23
 C     3.81270  -2.27930  -1.55790    91    45    90    83
 C     4.85030  -0.52530   0.23690    92    96    89    86
 C     3.97870   0.53270   2.23840    93    96    77    94
 C     3.47100  -0.75460   2.67160    94    95    13    93
 C     3.69180  -1.84220   1.82620    95    89    94    11
 C     4.64990   0.57480   1.00320    96    92    79    93
