    96
C96-C1-84                                                                       
 C     1.67170  -3.91050   1.01910     1     6     2    60
 C     2.42130  -3.13910   1.86960     2     1     3    10
 C     3.57760  -2.59630   1.31120     3     4    59     2
 C     4.10170  -1.41840   1.72680     4     5     3    31
 C     3.45150  -0.73900   2.69030     5     4    14    11
 C     0.34360  -4.08760   1.19540     6     1     8    74
 C    -1.69800  -3.40300   1.99350     7     8    21    75
 C    -0.36130  -3.48060   2.22520     8     7     6     9
 C     0.28940  -2.52260   3.05610     9     8    10    23
 C     1.70230  -2.40970   2.87440    10    11     9     2
 C     2.27440  -1.20390   3.23340    11     5    25    10
 C     3.51890   2.54780   1.48260    12    32    13    18
 C     4.12650   1.33990   1.72690    13    12    14    30
 C     3.45690   0.61240   2.70430    14     5    15    13
 C     2.27050   1.00740   3.30730    15    17    25    14
 C     0.26400   2.32720   3.21090    16    17    20    28
 C     1.67060   2.21480   3.05320    17    15    18    16
 C     2.36990   2.99120   2.12500    18    39    12    17
 C    -1.71440   3.24410   2.18900    19    29    20    92
 C    -0.35990   3.36380   2.42760    20    19    38    16
 C    -2.47320  -2.43020   2.57620    21    94     7    22
 C    -1.91100  -1.36010   3.30500    22    21    23    26
 C    -0.50600  -1.38530   3.55490    23    22    24     9
 C     0.15130  -0.11780   3.78300    24    25    23    28
 C     1.53190  -0.11350   3.63690    25    11    15    24
 C    -2.62650  -0.12020   3.22980    26    27    96    22
 C    -1.92140   1.11200   3.35110    27    29    28    26
 C    -0.52480   1.15340   3.62670    28    27    24    16
 C    -2.46650   2.20310   2.65280    29    19    90    27
 C     4.73460   0.63720   0.65640    30    31    34    13
 C     4.71170  -0.75070   0.69560    31     4    43    30
 C     3.46400   3.06810   0.21460    32    33    35    12
 C     3.93240   2.36080  -0.82590    33    32    34    52
 C     4.57590   1.17570  -0.62290    34    33    41    30
 C     2.35970   3.83150   0.06900    35    32    39    36
 C     1.65810   3.90160  -1.13550    36    37    35    51
 C     0.34900   4.24020  -0.97940    37    36    53    40
 C     0.38080   4.07680   1.43590    38    39    40    20
 C     1.70590   3.84880   1.29860    39    38    18    35
 C    -0.27330   4.40980   0.25020    40    93    37    38
 C     4.32010   0.38950  -1.72850    41    42    34    45
 C     4.29980  -0.97700  -1.66110    42    41    44    43
 C     4.53300  -1.55100  -0.41870    43    31    59    42
 C     3.38070  -1.61050  -2.46390    44    57    42    48
 C     3.43010   1.09850  -2.54350    45    52    47    41
 C     1.22700   1.12450  -3.58710    46    47    50    55
 C     2.45810   0.47220  -3.31570    47    48    45    46
 C     2.48430  -0.91010  -3.25970    48    68    47    44
 C    -1.17680   0.84090  -3.65380    49    56    69    50
 C     0.07250   0.27780  -3.83700    50    49    67    46
 C     2.04020   3.04760  -2.21150    51    52    36    55
 C     3.21000   2.33100  -2.00180    52    45    33    51
 C    -0.61630   3.82470  -1.86080    53    37    83    54
 C    -0.29890   2.93020  -2.87620    54    56    53    55
 C     1.02690   2.47300  -3.05950    55    54    51    46
 C    -1.36790   2.12320  -3.20030    56    49    54    86
 C     2.77630  -2.78660  -2.10900    57    44    58    61
 C     3.01470  -3.36950  -0.88440    58    60    59    57
 C     3.87340  -2.70800  -0.04300    59    58    43     3
 C     1.94310  -4.00460  -0.33960    60    58    64     1
 C     1.53130  -2.84340  -2.71420    61    68    63    57
 C    -0.86470  -3.14470  -2.51000    62    63    66    71
 C     0.45950  -3.54590  -2.20760    63    61    64    62
 C     0.73510  -4.15350  -0.98180    64    74    60    63
 C    -3.09810  -2.82530  -1.59870    65    72    77    66
 C    -1.90050  -3.53370  -1.58950    66    65    73    62
 C     0.10890  -1.15890  -3.70590    67    68    50    71
 C     1.35310  -1.67740  -3.42310    68    61    48    67
 C    -2.31240   0.11900  -3.36910    69    49    70    80
 C    -2.28380  -1.25030  -3.19180    70    72    69    71
 C    -1.05210  -1.93470  -3.31220    71    70    67    62
 C    -3.29660  -1.70960  -2.37400    72    65    70    82
 C    -1.54470  -4.09590  -0.32130    73    74    75    66
 C    -0.23860  -4.32230  -0.05500    74    73    64     6
 C    -2.30820  -3.77650   0.78870    75    78    73     7
 C    -4.58060  -1.50270  -0.57830    76    79    77    82
 C    -3.90790  -2.68300  -0.49390    77    78    76    65
 C    -3.46740  -3.11680   0.71010    78    75    77    94
 C    -4.79890  -0.76450   0.53960    79    76    87    95
 C    -3.21380   0.96420  -2.71680    80    86    81    69
 C    -4.17300   0.51130  -1.83140    81    80    82    88
 C    -4.22050  -0.87410  -1.73540    82    76    81    72
 C    -1.84600   3.85140  -1.21940    83    93    85    53
 C    -3.80180   2.57250  -0.54730    84    91    85    88
 C    -2.91030   3.02840  -1.55500    85    86    83    84
 C    -2.62310   2.18560  -2.60270    86    80    85    56
 C    -4.73180   0.59380   0.48770    87    79    89    88
 C    -4.46260   1.31950  -0.69070    88    87    84    81
 C    -4.20850   0.97290   1.70820    89    90    96    87
 C    -3.55970   2.10940   1.81660    90    89    91    29
 C    -3.42350   2.95560   0.75910    91    92    90    84
 C    -2.33670   3.71100   1.04110    92    93    91    19
 C    -1.59050   4.21700   0.07010    93    92    40    83
 C    -3.61030  -2.33370   1.81340    94    95    78    21
 C    -4.26960  -1.18110   1.74010    95    94    96    79
 C    -3.81220  -0.11650   2.43670    96    95    89    26
