    96
C96-C1-29                                                                       
 C    -1.13100   4.22380   0.27050     1     6     2    55
 C    -2.08680   3.74160   1.13180     2     1     3    10
 C    -3.24120   3.27000   0.49590     3     4    54     2
 C    -3.98400   2.26230   1.03190     4     5     3    26
 C    -3.60870   1.70140   2.18410     5     4    13    11
 C     0.17900   4.24030   0.60430     6     1     8    72
 C     1.97280   3.39700   1.75960     7     8    15    73
 C     0.65390   3.71820   1.79780     8     7     6     9
 C    -0.23480   3.03490   2.66530     9     8    10    17
 C    -1.62800   3.11760   2.33380    10    11     2     9
 C    -2.43860   2.10890   2.81010    11    19    10     5
 C    -2.41420  -1.22960   3.29950    12    14    22    20
 C    -3.83950   0.38240   2.41110    13     5    14    24
 C    -2.82940   0.01800   3.25830    14    12    19    13
 C     2.49870   2.39330   2.54340    15    94     7    16
 C     1.67970   1.52990   3.28940    16    15    17    38
 C     0.30230   1.87120   3.39370    17    18    16     9
 C    -0.57610   0.81700   3.74590    18    19    17    21
 C    -1.93520   1.02830   3.48130    19    14    11    18
 C    -1.09820  -1.52170   3.55960    20    33    12    21
 C    -0.12040  -0.55320   3.79230    21    20    37    18
 C    -2.99700  -2.16270   2.50000    22    12    28    23
 C    -3.96240  -1.84140   1.52160    23    22    31    24
 C    -4.41270  -0.49390   1.46630    24    13    25    23
 C    -4.73680   0.10320   0.21780    25    27    26    24
 C    -4.52910   1.47890   0.04040    26     4    41    25
 C    -4.51650  -0.65500  -0.92780    27    32    39    25
 C    -2.03150  -3.11130   2.36300    28    29    22    33
 C    -1.97870  -3.85650   1.27260    29    28    93    30
 C    -2.85210  -3.58060   0.24120    30    29    50    31
 C    -3.82690  -2.59330   0.32570    31    32    30    23
 C    -4.07000  -1.94880  -0.87520    32    27    31    49
 C    -0.84660  -2.73410   2.98230    33    20    28    34
 C     0.42640  -3.12880   2.57770    34    33    35    92
 C     1.51260  -2.24800   2.89880    35    87    34    37
 C     3.36940  -0.14000   2.75260    36    96    86    38
 C     1.22530  -0.92640   3.51680    37    21    38    35
 C     2.14260   0.15190   3.36750    38    36    37    16
 C    -4.04510  -0.09190  -2.10760    39    40    27    43
 C    -3.83180   1.25000  -2.23500    40    39    41    42
 C    -4.11490   2.05160  -1.14970    41    40    54    26
 C    -2.74060   1.59620  -3.00740    42    52    40    48
 C    -3.22950  -1.03120  -2.72790    43    49    39    47
 C     0.02620  -3.41670  -2.44030    44    62    45    84
 C    -1.12910  -2.79440  -2.85530    45    44    51    46
 C    -0.96060  -1.53360  -3.52750    46    47    45    64
 C    -2.08960  -0.67880  -3.47000    47    48    43    46
 C    -1.88790   0.67190  -3.58360    48    47    66    42
 C    -3.29710  -2.18910  -2.01670    49    43    51    32
 C    -2.14690  -3.85900  -0.91220    50    82    30    51
 C    -2.28640  -3.10340  -2.07340    51    49    50    45
 C    -2.00960   2.72300  -2.75050    52    42    53    56
 C    -2.31240   3.54170  -1.68730    53    55    54    52
 C    -3.35220   3.16940  -0.87970    54    53    41     3
 C    -1.22260   4.11050  -1.10790    55    53    59     1
 C    -0.71090   2.49240  -3.18160    56    58    66    52
 C     1.65870   2.50730  -2.71290    57    58    61    69
 C     0.38510   3.12430  -2.64710    58    56    59    57
 C     0.06020   3.97320  -1.58670    59    72    55    58
 C     3.72080   2.12510  -1.50050    60    70    61    77
 C     2.62390   2.93330  -1.73250    61    60    71    57
 C     1.26990  -2.91660  -2.66490    62    44    79    63
 C     1.53100  -1.68540  -3.28500    63    62    64    67
 C     0.38610  -0.94810  -3.69990    64    63    65    46
 C     0.55260   0.48990  -3.74000    65    66    64    69
 C    -0.62830   1.22000  -3.69450    66    56    48    65
 C     2.76880  -1.06710  -2.94850    67    81    63    68
 C     2.89130   0.35560  -2.95650    68    70    69    67
 C     1.76640   1.15970  -3.30640    69    68    65    57
 C     3.87550   0.89820  -2.10440    70    60    75    68
 C     2.20660   3.73440  -0.62030    71    72    73    61
 C     0.93150   4.17060  -0.57070    72    71    59     6
 C     2.77680   3.49520   0.62020    73    78    71     7
 C     4.48830  -1.16060  -1.19530    74    75    81    88
 C     4.67800   0.15840  -1.25480    75    74    76    70
 C     4.94980   0.85190  -0.11990    76    77    75    95
 C     4.38710   2.07310  -0.27750    77    78    76    60
 C     3.82760   2.69140   0.78610    78    73    77    94
 C     2.07640  -3.44810  -1.68480    79    80    83    62
 C     3.19500  -2.87130  -1.36800    80    79    81    89
 C     3.60550  -1.75600  -2.02970    81    74    80    67
 C    -0.93950  -4.34820  -0.52220    82    84    50    93
 C     1.34750  -4.11190  -0.76030    83    84    79    91
 C     0.11280  -4.18680  -1.29430    84    82    83    44
 C     4.55150  -1.10990   1.15080    85    88    95    86
 C     3.63800  -1.36860   2.16390    86    85    36    87
 C     2.71980  -2.42050   2.14430    87    86    35    90
 C     4.45860  -1.82560   0.01710    88    89    85    74
 C     3.61070  -2.86340  -0.05250    89    88    80    90
 C     2.75050  -3.28520   0.99040    90    91    89    87
 C     1.60240  -4.00270   0.63090    91    90    92    83
 C     0.46180  -4.01220   1.44710    92    91    93    34
 C    -0.77890  -4.29940   0.83560    93    29    82    92
 C     3.68180   2.02970   1.97580    94    96    15    78
 C     4.84800   0.21060   1.09840    95    96    85    76
 C     4.15360   0.78880   2.10380    96    94    95    36
