    96
C96-C1-67                                                                       
 C    -2.00660  -3.25310   1.86170     1     2    56     5
 C    -2.86450  -3.25190   0.75470     2    19    41     1
 C     0.20420  -2.41060   3.29170     3     8     4    55
 C    -0.97400  -1.71880   3.50560     4     3    11     5
 C    -2.16830  -2.17500   2.80980     5     6     1     4
 C    -3.25000  -1.25840   2.60510     6     7     5    18
 C    -3.05360   0.03050   3.11250     7    20    12     6
 C     1.45910  -1.86520   3.43750     8    62     3     9
 C     1.69350  -0.52710   3.74640     9     8    16    10
 C     0.52550   0.27170   3.95260    10     9    11    14
 C    -0.78320  -0.35040   3.89680    11    12     4    10
 C    -1.86310   0.46930   3.68060    12    11    28     7
 C     1.83480   2.12410   3.08890    13    15    14    89
 C     0.62880   1.68090   3.61230    14    13    27    10
 C     2.95320   1.33080   2.92550    15    16    13    96
 C     2.91880  -0.00270   3.24970    16    15    17     9
 C     3.77480  -0.78590   2.46430    17    61    94    16
 C    -4.12340  -1.35270   1.46750    18    19    22     6
 C    -3.85890  -2.33850   0.55140    19     2    18    33
 C    -3.67180   1.12680   2.56520    20    21    23     7
 C    -4.44960   1.01810   1.46920    21    22    20    24
 C    -4.67300  -0.18780   0.90970    22    21    31    18
 C    -2.84080   2.18650   2.72860    23    26    28    20
 C    -4.34430   1.95820   0.47760    24    25    37    21
 C    -3.47580   2.97820   0.62620    25    24    26    49
 C    -2.75020   3.12210   1.75890    26    29    23    25
 C    -0.50480   2.44340   3.25890    27    28    14    30
 C    -1.73130   1.82340   3.41290    28    23    27    12
 C    -1.56370   3.70540   1.48730    29    26    30    82
 C    -0.41650   3.47230   2.23420    30    29    90    27
 C    -4.77210   0.01770  -0.46830    31    32    22    37
 C    -4.40270  -0.95500  -1.34800    32    31    33    34
 C    -3.99950  -2.15680  -0.82840    33    32    40    19
 C    -3.74570  -0.55090  -2.48540    34    32    36    38
 C    -3.73860   1.78610  -1.82820    35    36    37    50
 C    -3.41960   0.77580  -2.71290    36    53    35    34
 C    -4.49080   1.36240  -0.72470    37    24    31    35
 C    -2.77110  -1.33140  -3.08740    38    43    39    34
 C    -2.37660  -2.56130  -2.60970    39    38    40    47
 C    -3.05920  -2.94340  -1.45030    40    41    33    39
 C    -2.44070  -3.66300  -0.49130    41    42    40     2
 C    -1.20460  -4.10140  -0.68280    42    41    57    48
 C    -1.89040  -0.51050  -3.71630    43    38    45    53
 C     0.25710   0.18740  -4.08510    44    67    45    54
 C    -0.58120  -0.88680  -3.95480    45    44    43    46
 C    -0.06260  -2.13410  -3.48260    46    45    47    69
 C    -1.01590  -2.95730  -2.79740    47    48    39    46
 C    -0.48720  -3.78390  -1.81420    48    71    42    47
 C    -2.70640   3.41980  -0.42070    49    25    82    50
 C    -2.78120   2.85240  -1.69560    50    49    51    35
 C    -1.57870   2.91610  -2.47380    51    52    50    84
 C    -1.39620   1.85220  -3.41640    52    54    53    51
 C    -2.29180   0.80830  -3.47200    53    36    52    43
 C    -0.13030   1.50520  -3.81430    54    87    52    44
 C     0.31020  -3.45290   2.38820    55    56    60     3
 C    -0.74720  -3.85050   1.63720    56    55    57     1
 C    -0.36770  -4.26290   0.35440    57    42    58    56
 C     0.91980  -4.19130  -0.13710    58    59    57    71
 C     1.98020  -3.84170   0.63840    59    58    60    65
 C     1.62030  -3.50310   1.94800    60    62    55    59
 C     3.43340  -2.06870   2.14990    61    62    17    66
 C     2.32060  -2.59170   2.65330    62    61    60     8
 C     3.75490  -1.72750  -1.72910    63    72    74    64
 C     3.00800  -2.84800  -1.35390    64    63    70    65
 C     3.08670  -3.21340   0.03900    65    66    59    64
 C     3.84750  -2.37900   0.87710    66    75    61    65
 C     1.59270   0.08880  -3.87470    67    44    78    68
 C     2.18550  -1.09040  -3.43890    68    72    67    69
 C     1.36540  -2.22590  -3.17370    69    68    70    46
 C     1.82440  -3.11410  -2.12260    70    71    64    69
 C     0.84210  -3.84820  -1.48370    71    48    70    58
 C     3.36040  -0.87630  -2.72850    72    63    68    81
 C     4.54870   0.32490  -1.24590    73    74    81    77
 C     4.51910  -0.98310  -0.84550    74    75    73    63
 C     4.54170  -1.29120   0.45830    75    74    66    94
 C     3.84180   2.49580  -0.72610    76    91    79    77
 C     4.56070   1.37180  -0.31290    77    76    73    95
 C     2.06380   1.34860  -3.54140    78    80    87    67
 C     3.18230   2.57300  -1.93590    79    80    76    85
 C     3.19590   1.52030  -2.81410    80    78    81    79
 C     3.86920   0.39230  -2.44040    81    80    73    72
 C    -1.53680   3.93630   0.10820    82    83    49    29
 C    -0.36570   4.05230  -0.59700    83    82    93    84
 C    -0.37470   3.57010  -1.96490    84    86    83    51
 C     2.05000   3.37810  -1.77220    85    92    86    79
 C     0.89010   3.21900  -2.51430    86    87    85    84
 C     0.97070   2.18940  -3.43420    87    54    86    78
 C     3.06210   2.91730   1.43360    88    91    96    89
 C     1.90800   3.13190   2.13090    89    88    90    13
 C     0.78680   3.75410   1.59080    90    89    30    93
 C     3.11370   3.26220   0.13750    91    88    76    92
 C     2.01450   3.80080  -0.47120    92    91    85    93
 C     0.82910   4.08520   0.18140    93    92    83    90
 C     4.52620  -0.29390   1.41010    94    75    95    17
 C     4.52010   1.04170   1.06280    95    94    96    77
 C     3.73720   1.83160   1.89440    96    88    95    15
