    96
C96-C1-68                                                                       
 C    -0.10000   3.97530   1.14750     1     2    57     5
 C    -1.26520   4.03360   0.42360     2     1    14    45
 C     2.25680   2.98310   2.19840     3     4    60     9
 C     1.08370   2.75310   2.87910     4     3     6     5
 C    -0.15520   3.28010   2.41620     5     4     1    12
 C     1.10130   1.56530   3.58580     6    10     4     7
 C     2.13340   0.63640   3.52210     7     8    23     6
 C     3.28360   0.84450   2.82230     8     7     9    30
 C     3.34460   2.09730   2.20770     9    62     8     3
 C    -0.04550   0.91860   3.88390    10     6    11    16
 C    -1.28260   1.43500   3.57700    11    10    15    12
 C    -1.39750   2.64010   2.81910    12    11    13     5
 C    -2.59270   2.78910   2.04480    13    14    12    33
 C    -2.47640   3.53160   0.86970    14    36     2    13
 C    -2.25960   0.46510   3.48830    15    32    11    19
 C     0.24510  -0.44240   3.95690    16    18    23    10
 C    -0.29730  -2.62460   3.11600    17    18    21    26
 C    -0.69710  -1.40480   3.72470    18    16    19    17
 C    -1.97490  -0.90390   3.55650    19    42    18    15
 C    -0.89340  -4.05270   1.27880    20    27    84    21
 C    -1.33050  -3.28920   2.35510    21    20    41    17
 C     2.08310  -1.76260   3.09800    22    23    28    26
 C     1.57400  -0.61310   3.68620    23    16     7    22
 C     2.59760  -3.41490   0.95670    24    31    25    88
 C     1.43890  -3.64600   1.68310    25    27    24    26
 C     1.11790  -2.80380   2.78400    26    25    22    17
 C     0.41610  -4.21300   0.94420    27    20    25    91
 C     3.30180  -1.56950   2.35980    28    31    22    30
 C     4.63950   0.00950   1.04760    29    63    92    30
 C     3.92090  -0.27200   2.23170    30    29     8    28
 C     3.50060  -2.44330   1.29010    31    24    96    28
 C    -3.39130   0.62870   2.74960    32    15    33    37
 C    -3.61560   1.78120   2.02460    33    32    34    13
 C    -4.37760   1.58050   0.86230    34    35    40    33
 C    -4.18950   2.33020  -0.24550    35    36    34    47
 C    -3.25770   3.30280  -0.23250    36    35    46    14
 C    -3.82590  -0.62370   2.35370    37    39    32    42
 C    -4.18610  -1.94880   0.48350    38    39    43    52
 C    -4.49060  -0.79860   1.16330    39    40    38    37
 C    -4.75510   0.31120   0.42070    40    39    34    54
 C    -2.64230  -2.74400   2.21480    41    42    43    21
 C    -2.93230  -1.55940   2.84560    42    19    41    37
 C    -3.33870  -2.90050   1.00650    43    85    38    41
 C    -0.15080   3.79510  -1.73060    44    45    56    51
 C    -1.29520   3.99940  -0.97220    45    46    44     2
 C    -2.51220   3.54540  -1.33580    46    45    49    36
 C    -4.34530   1.54590  -1.35620    47    48    54    35
 C    -3.52920   1.72760  -2.41630    48    47    49    80
 C    -2.63040   2.74340  -2.41500    49    46    50    48
 C    -1.52590   2.37670  -3.10950    50    49    51    68
 C    -0.26900   2.89760  -2.86690    51    50    65    44
 C    -4.03670  -1.95910  -0.90780    52    76    53    38
 C    -4.19130  -0.83360  -1.67640    53    52    54    79
 C    -4.66300   0.28670  -0.97390    54    47    40    53
 C     2.15270   3.34500  -1.67560    55    58    56    66
 C     1.05630   3.93930  -1.05450    56    44    55    57
 C     1.10310   4.07290   0.39180    57    60     1    56
 C     3.29990   3.04630  -1.01460    58    59    55    61
 C     3.36750   3.21070   0.32300    59    58    60    62
 C     2.27470   3.65010   0.99470    60    59     3    57
 C     3.89620   1.98350  -1.61820    61    64    58    67
 C     4.04430   2.28760   1.06000    62    63     9    59
 C     4.67680   1.25270   0.47160    63    62    29    64
 C     4.61640   1.10330  -0.89170    64    75    61    63
 C     0.82010   2.10600  -3.28740    65    66    51    70
 C     2.03600   2.43000  -2.72710    66    65    67    55
 C     3.10390   1.55800  -2.64810    67    61    66    73
 C    -1.73930   1.08100  -3.55310    68    69    50    80
 C    -0.69840   0.22210  -3.83680    69    68    82    70
 C     0.65120   0.75070  -3.77140    70    72    65    69
 C     1.42620  -1.49590  -3.49080    71    93    72    81
 C     1.76230  -0.15370  -3.61030    72    71    73    70
 C     3.01550   0.22330  -3.03400    73    67    72    74
 C     3.82730  -0.71310  -2.28820    74    94    75    73
 C     4.58180  -0.20870  -1.20510    75    64    92    74
 C    -3.12820  -2.92580  -1.22420    76    52    85    77
 C    -2.22820  -2.84120  -2.29780    77    76    87    78
 C    -2.25720  -1.62190  -3.07060    78    79    77    82
 C    -3.27490  -0.65590  -2.77010    79    80    78    53
 C    -2.98290   0.66690  -3.09010    80    48    68    79
 C     0.11930  -1.96730  -3.49350    81    86    82    71
 C    -0.99720  -1.16480  -3.64660    82    81    69    78
 C    -0.77130  -4.23890  -0.94100    83    84    91    87
 C    -1.61530  -4.14670   0.10530    84    85    83    20
 C    -2.78160  -3.54780  -0.04020    85    84    43    76
 C     0.09740  -3.14770  -2.79210    86    87    81    89
 C    -1.03370  -3.57880  -2.15320    87    86    83    77
 C     2.67780  -3.60000  -0.42900    88    90    95    24
 C     1.37470  -3.38980  -2.33500    89    93    86    90
 C     1.59490  -4.02370  -1.13080    90    91    88    89
 C     0.49490  -4.38800  -0.43770    91    90    83    27
 C     4.68800  -0.87970   0.00160    92    96    29    75
 C     2.21150  -2.39670  -2.79330    93    94    89    71
 C     3.37190  -2.03410  -2.14710    94    93    74    95
 C     3.57960  -2.70120  -0.92750    95    96    88    94
 C     4.15320  -2.08160   0.13070    96    92    95    31
