    96
C96-C1-39                                                                       
 C     1.38310   4.19510   0.66330     1     2     6    61
 C     2.58170   3.58100   0.77950     2     1     3    10
 C     3.19270   3.29130  -0.44210     3     4     2    58
 C     4.13510   2.35670  -0.56090     4     3     5    26
 C     4.54600   1.64930   0.51340     5    13     4    11
 C     0.41570   4.07510   1.62100     6     1    71     8
 C    -0.63190   2.62730   3.06890     7     8    15    72
 C     0.56770   3.13970   2.64580     8     7     6     9
 C     1.74230   2.36110   2.76910     9     8    10    17
 C     2.82230   2.69340   1.87720    10    11     2     9
 C     3.81550   1.75970   1.68850    11    19    10     5
 C     4.18950  -1.58780   1.34320    12    14    20    22
 C     4.95880   0.37730   0.34170    13     5    14    24
 C     4.51330  -0.30130   1.43940    14    12    13    19
 C    -0.74010   1.33230   3.54140    15     7    78    16
 C     0.33710   0.45720   3.63920    16    15    17    32
 C     1.63910   0.98900   3.30530    17    18    16     9
 C     2.66150   0.04420   3.00960    18    19    17    21
 C     3.75980   0.50750   2.25570    19    14    11    18
 C     3.18730  -2.12430   2.08740    20    12    31    21
 C     2.36280  -1.36240   2.95520    21    20    33    18
 C     4.22820  -2.21690   0.12270    22    27    23    12
 C     4.45640  -1.50040  -0.99550    23    24    22    54
 C     4.86150  -0.22160  -0.89470    24    23    25    13
 C     4.25530   0.44290  -1.91090    25    26    24    40
 C     3.93170   1.72280  -1.76550    26    25    39     4
 C     3.31070  -3.18270   0.12750    27    22    28    31
 C     2.54680  -3.48130  -0.99930    28    29    27    53
 C     1.42440  -4.15700  -0.72840    29    28    56    30
 C     0.96430  -4.41530   0.56630    30    91    35    29
 C     2.73390  -3.21990   1.40320    31    35    20    27
 C     0.00540  -0.94920   3.57960    32    16    33    94
 C     1.05280  -1.87790   3.20880    33    21    34    32
 C     0.68640  -3.14120   2.60950    34    96    35    33
 C     1.53610  -3.76180   1.65310    35    31    30    34
 C    -1.05130   3.47940  -2.28250    36    52    59    37
 C     0.27340   3.20050  -2.58050    37    36    57    49
 C     1.91570   1.44710  -3.12690    38    49    39    43
 C     2.82790   2.22850  -2.36850    39    26    58    38
 C     3.40360  -0.38610  -2.60670    40    54    25    43
 C     1.36100  -2.29480  -2.85040    41    55    53    42
 C     1.15660  -0.93340  -3.38090    42    43    47    41
 C     2.20390   0.03660  -3.21470    43    40    42    38
 C    -2.14520  -3.27210  -2.12390    44    93    88    45
 C    -1.08140  -2.68070  -2.87470    45    55    46    44
 C    -1.28430  -1.35860  -3.36810    46    50    45    47
 C    -0.19110  -0.44320  -3.59410    47    46    42    48
 C    -0.46900   1.00400  -3.53840    48    51    49    47
 C     0.59140   1.94070  -3.24630    49    38    48    37
 C    -2.54800  -0.80890  -3.10100    50    69    89    46
 C    -1.80930   1.43830  -3.24480    51    69    52    48
 C    -2.06600   2.65050  -2.61910    52    36    51    67
 C     2.57550  -2.58540  -2.11250    53    54    28    41
 C     3.56560  -1.63470  -2.05460    54    53    40    23
 C     0.23270  -3.12810  -2.58490    55    45    56    41
 C     0.33190  -4.09520  -1.54940    56    92    29    55
 C     1.20750   3.81450  -1.70930    57    58    61    37
 C     2.44240   3.31320  -1.62280    58    57    39     3
 C    -1.48050   4.18770  -1.17350    59    60    62    36
 C    -0.56760   4.57030  -0.27680    60    59    61    71
 C     0.73470   4.41570  -0.54380    61    60     1    57
 C    -2.70960   3.76700  -0.78730    62    59    67    63
 C    -3.04520   3.61940   0.56220    63    64    62    70
 C    -3.90010   2.56010   0.83130    64    74    68    63
 C    -3.88400   0.72310  -2.15620    65    66    79    69
 C    -4.02070   1.87710  -1.45260    66    67    65    68
 C    -3.13440   2.86600  -1.73630    67    66    62    52
 C    -4.42500   1.72620  -0.13470    68    64    66    82
 C    -2.80150   0.51640  -3.02220    69    50    51    65
 C    -2.01110   3.89090   1.49370    70    71    72    63
 C    -0.81130   4.39280   1.05590    71    60    70     6
 C    -1.86460   3.01600   2.55780    72    75    70     7
 C    -4.16330   0.49380   1.69980    73    74    82    76
 C    -3.74310   1.76960   1.93810    74    75    73    64
 C    -2.70950   1.98240   2.76080    75    74    72    78
 C    -3.58580  -0.62510   2.31960    76    73    84    77
 C    -2.43550  -0.37150   3.17640    77    78    94    76
 C    -2.05090   0.93960   3.33980    78    75    77    15
 C    -4.24200  -0.49850  -1.65480    79    89    65    81
 C    -4.24680  -1.90330   0.29840    80    87    81    84
 C    -4.62620  -0.69330  -0.31550    81    82    79    80
 C    -4.65410   0.46660   0.40860    82    81    73    68
 C    -2.77630  -2.82340   1.99120    83    85    84    95
 C    -3.70840  -1.85340   1.64590    84    83    76    80
 C    -2.42480  -3.85370   1.16580    85    90    86    83
 C    -2.87030  -3.85910  -0.11350    86    87    85    93
 C    -3.70770  -2.89610  -0.53380    87    86    88    80
 C    -3.29590  -2.60530  -1.82000    88    89    44    87
 C    -3.50740  -1.42150  -2.32510    89    88    79    50
 C    -1.15850  -4.22960   1.46050    90    91    85    96
 C    -0.33850  -4.65610   0.47450    91    30    90    92
 C    -0.73440  -4.54350  -0.82240    92    93    91    56
 C    -1.96030  -4.14960  -1.10460    93    92    44    86
 C    -1.39660  -1.32250   3.35700    94    95    77    32
 C    -1.66200  -2.55780   2.80170    95    96    94    83
 C    -0.66240  -3.42930   2.46040    96    95    90    34
