    96
C96-C1-51                                                                       
 C     2.78980  -2.94050  -1.80390     1    63     2     4
 C     3.86740  -2.44110  -1.05430     2     3    45     1
 C     4.48060  -1.26860  -1.32510     3     2     6    22
 C     2.24810  -2.07190  -2.83160     4     5     9     1
 C     2.88420  -0.85900  -3.01190     5     6     4    14
 C     4.00650  -0.48600  -2.31860     6    23     3     5
 C    -1.21300  -3.09150  -2.47030     7     8    69    10
 C     0.14430  -3.12180  -2.59600     8     7     9    62
 C     0.87060  -2.10180  -3.18820     9     8     4    12
 C    -2.01070  -2.04590  -2.91030    10     7    18    11
 C    -1.32590  -0.90650  -3.48450    11    16    10    12
 C     0.12010  -0.92350  -3.61600    12    13    11     9
 C     0.83730   0.33320  -3.64350    13    14    34    12
 C     2.20040   0.29650  -3.36550    14     5    27    13
 C    -3.29070   0.35810  -2.82380    15    91    17    16
 C    -1.99860   0.35120  -3.41910    16    15    11    35
 C    -3.88560  -0.72760  -2.21540    17    18    15    96
 C    -3.26590  -1.93710  -2.23680    18    17    19    10
 C    -3.53530  -2.74060  -1.11890    19    68    94    18
 C     4.91710   0.65110  -0.03410    20    22    38    21
 C     4.52500   1.43320  -1.09390    21    25    23    20
 C     4.89310  -0.69010  -0.14430    22    20    44     3
 C     4.02430   0.85790  -2.21440    23     6    21    27
 C     2.02840   3.87100  -0.49010    24    32    26    40
 C     3.93680   2.55310  -0.61560    25    21    39    26
 C     2.88010   3.16480  -1.29970    26    24    25    29
 C     2.91970   1.36560  -2.84400    27    23    29    14
 C     0.92800   2.68760  -2.79960    28    31    29    34
 C     2.30400   2.54070  -2.46130    29    27    28    26
 C    -1.16310   3.56860  -1.97890    30    31    33    86
 C     0.19160   3.60970  -2.00460    31    30    32    28
 C     0.75020   4.12040  -0.84100    32    24    31    88
 C    -1.86950   2.64340  -2.70530    33    92    30    35
 C     0.17510   1.59380  -3.44360    34    35    13    28
 C    -1.24430   1.57720  -3.37510    35    33    34    16
 C     2.98500   1.09210   2.89690    36    42    49    37
 C     4.00020   0.48420   2.18130    37    36    38    43
 C     4.51300   1.25270   1.11800    38    20    39    37
 C     3.98180   2.48330   0.77920    39    41    38    25
 C     2.08600   3.83160   0.89570    40    41    56    24
 C     3.01260   3.06750   1.53200    41    40    39    42
 C     2.52600   2.36210   2.60480    42    41    58    36
 C     3.93660  -0.92480   2.08270    43    37    44    46
 C     4.45670  -1.47520   0.88720    44    45    22    43
 C     3.93000  -2.59560   0.31900    45    48    44     2
 C     2.84500  -1.63480   2.70890    46    47    50    43
 C     2.45010  -2.83060   2.12030    47    48    54    46
 C     2.98240  -3.28060   0.93680    48    45    64    47
 C     1.93960   0.41000   3.48950    49    36    50    59
 C     1.79970  -0.96660   3.42140    50    49    46    52
 C    -0.63440  -0.54930   3.73030    51    55    61    52
 C     0.45950  -1.48420   3.54250    52    50    53    51
 C     0.14910  -2.76000   2.93130    53    54    71    52
 C     1.18170  -3.35340   2.21640    54    47    53    65
 C    -1.90620  -0.98660   3.40400    55    70    51    84
 C     0.80110   4.00040   1.36250    56    88    40    57
 C     0.28790   3.31930   2.46660    57    58    56    80
 C     1.21960   2.46810   3.02980    58    59    42    57
 C     0.85730   1.27280   3.59250    59    58    61    49
 C    -1.48350   1.78820   3.23070    60    83    61    80
 C    -0.45460   0.87480   3.69510    61    59    51    60
 C     0.65550  -3.93130  -1.58600    62    63    67     8
 C     1.92440  -3.80580  -1.13170    63    62     1    64
 C     2.03730  -3.95800   0.25640    64    48    65    63
 C     0.94480  -4.11610   1.07640    65    66    64    54
 C    -0.30980  -4.34500   0.60940    66    65    67    72
 C    -0.40800  -4.28680  -0.78660    67    69    62    66
 C    -2.63990  -3.65920  -0.68760    68    69    19    73
 C    -1.53880  -3.87640  -1.38720    69    68    67     7
 C    -2.16950  -2.22400   2.85850    70    75    55    71
 C    -1.16520  -3.12470   2.53560    71    70    53    72
 C    -1.41230  -3.93790   1.37350    72    73    66    71
 C    -2.60760  -3.70030   0.68330    73    76    68    72
 C    -3.83950  -0.84070   2.26080    74    75    78    84
 C    -3.35460  -2.10750   2.17250    75    76    74    70
 C    -3.57390  -2.83420   1.06620    76    75    73    94
 C    -4.47780   1.11270   1.19320    77    93    78    82
 C    -4.60190  -0.26250   1.25180    78    77    74    95
 C    -1.94630   3.54850   1.52180    79    81    87    80
 C    -1.09020   3.02020   2.54950    80    57    79    60
 C    -3.17970   2.94410   1.31000    81    82    89    79
 C    -3.59080   1.83410   2.00350    82    81    83    77
 C    -2.75090   1.23290   2.92790    83    84    82    60
 C    -2.93470  -0.12910   3.04450    84    83    55    74
 C    -3.12560   3.32700  -0.99740    85    86    89    92
 C    -1.93590   3.92310  -0.86830    86    85    87    30
 C    -1.34720   4.14500   0.36630    87    88    86    79
 C    -0.00840   4.30260   0.31390    88    87    56    32
 C    -3.80720   2.88940   0.08250    89    85    93    81
 C    -4.61950   1.06800  -1.16740    90    96    91    93
 C    -3.82330   1.45750  -2.20750    91    92    90    15
 C    -3.10470   2.57150  -2.13570    92    91    33    85
 C    -4.57530   1.77660   0.00080    93    89    90    77
 C    -4.21440  -2.25710  -0.00660    94    95    76    19
 C    -4.76200  -0.99710   0.04080    95    94    96    78
 C    -4.68100  -0.28260  -1.14550    96    90    95    17
