    96
C96-C1-28                                                                       
 C     4.07980  -2.56740  -0.12400     1     2     6    58
 C     4.29180  -1.94140   1.04280     2     1     3    21
 C     4.81310  -0.69550   1.04800     3     2     4    59
 C     4.22370  -0.03890   2.07850     4     5     3    11
 C     4.01130   1.27210   2.00250     5     4    10    47
 C     3.05410  -3.42820  -0.23540     6     1    61    27
 C    -0.86770   3.31130   2.38820     7    19    32     8
 C     0.42170   2.94980   2.73900     8     7    30    17
 C     1.91950   1.07430   3.26620     9    10    17    13
 C     2.91310   1.82190   2.58880    10     5    31     9
 C     3.27480  -0.84700   2.67120    11     4    21    13
 C     0.99640  -1.23760   3.36290    12    13    15    25
 C     2.10590  -0.35380   3.27450    13    11    12     9
 C    -1.39760  -1.42360   3.36400    14    15    26    38
 C    -0.28950  -0.62530   3.59350    15    14    12    16
 C    -0.51810   0.80480   3.56860    16    17    15    18
 C     0.62210   1.65960   3.35720    17     9    16     8
 C    -1.85740   1.28030   3.21880    18    19    39    16
 C    -1.96200   2.53040   2.62350    19     7    18    42
 C     2.24940  -2.93500   1.98050    20    21    25    27
 C     3.33700  -2.07290   2.03940    21    11     2    20
 C    -1.49450  -4.23820   0.64790    22    91    96    23
 C    -0.22160  -4.12510   1.25220    23    29    22    24
 C    -0.12130  -3.26870   2.40810    24    26    25    23
 C     1.07750  -2.58000   2.72870    25    24    20    12
 C    -1.32240  -2.70340   2.82860    26    92    14    24
 C     2.13660  -3.74310   0.79370    27    29     6    20
 C     0.60350  -4.23430  -0.97450    28    94    63    29
 C     0.89190  -4.24480   0.41110    29    27    23    28
 C     1.43350   3.54780   1.94300    30    31    34     8
 C     2.64300   2.96760   1.88500    31    30    10    46
 C    -1.17720   4.10720   1.30580    32    33    35     7
 C    -0.19610   4.49750   0.48380    33    32    34    56
 C     1.08180   4.24450   0.79290    34    33    44    30
 C    -2.40710   3.80630   0.83650    35    32    42    36
 C    -2.68240   3.81540  -0.53170    36    37    35    55
 C    -3.61580   2.88380  -0.91520    37    36    43    85
 C    -2.67350  -0.93660   3.09280    38    87    39    14
 C    -2.94650   0.41310   2.94010    39    38    18    40
 C    -3.99450   0.75640   1.99620    40    41    89    39
 C    -3.92630   1.98780   1.32800    41    42    40    43
 C    -2.95310   2.87100   1.70120    42    41    35    19
 C    -4.26710   2.04880  -0.03370    43    83    37    41
 C     1.77930   4.07380  -0.39410    44    45    49    34
 C     2.93560   3.38160  -0.47400    45    44    46    53
 C     3.45990   2.97280   0.75020    46    47    45    31
 C     4.32310   1.96300   0.85760    47    46    48     5
 C     4.74080   1.28030  -0.22990    48    59    47    54
 C     0.84850   4.08130  -1.39370    49    44    56    51
 C    -0.23240   2.80050  -2.97200    50    51    64    57
 C     0.98070   3.19790  -2.46520    51    50    49    52
 C     2.10590   2.34960  -2.57720    52    51    53    66
 C     3.16490   2.54270  -1.61470    53    54    45    52
 C     4.08110   1.52560  -1.43520    54    68    53    48
 C    -1.58710   4.06960  -1.39270    55    56    57    36
 C    -0.38100   4.44350  -0.86680    56    33    55    49
 C    -1.45510   3.25390  -2.50620    57    86    50    55
 C     4.20670  -1.86480  -1.31100    58    60    62     1
 C     5.03800  -0.03210  -0.14540    59    48    60     3
 C     4.63260  -0.60270  -1.30740    60    58    59    68
 C     2.62260  -3.29810  -1.53950    61    63    62     6
 C     3.22110  -2.24020  -2.15200    62    58    61    71
 C     1.41660  -3.63860  -1.87010    63    61    28    72
 C    -0.42010   1.54260  -3.51350    64    65    50    73
 C     0.59170   0.60780  -3.61720    65    64    69    66
 C     1.92810   1.02600  -3.20930    66    67    65    52
 C     2.88960   0.01090  -2.93690    67    68    66    71
 C     3.98090   0.32380  -2.09940    68    54    60    67
 C     0.14660  -0.76960  -3.63560    69    70    65    76
 C     1.15580  -1.71970  -3.31950    70    72    69    71
 C     2.49610  -1.35890  -3.00090    71    62    70    67
 C     0.68460  -2.91740  -2.78250    72    81    63    70
 C    -1.76380   1.22980  -3.39520    73    86    64    75
 C    -3.48950  -0.23560  -2.56000    74    78    84    75
 C    -2.25960  -0.07220  -3.30200    75    73    76    74
 C    -1.29390  -1.10860  -3.43910    76    75    80    69
 C    -4.48540  -1.41020  -0.68770    77    93    82    78
 C    -3.77070  -1.46820  -1.92600    78    79    74    77
 C    -2.87930  -2.55120  -2.09480    79    78    95    80
 C    -1.67250  -2.36900  -2.85970    80    81    76    79
 C    -0.61830  -3.21400  -2.54900    81    72    94    80
 C    -4.79420  -0.21770  -0.07790    82    83    77    89
 C    -4.60310   0.91610  -0.71940    83    82    43    84
 C    -4.01930   0.93130  -1.96020    84    85    83    74
 C    -3.47130   2.16060  -2.07910    85    86    84    37
 C    -2.37440   2.31460  -2.81430    86    85    57    73
 C    -3.36500  -1.91790   2.44230    87    92    88    38
 C    -4.28530  -1.60560   1.50490    88    89    87    93
 C    -4.56800  -0.31120   1.28460    89    88    82    40
 C    -3.47080  -3.33310   0.14640    90    93    95    91
 C    -2.62530  -3.72270   1.16370    91    92    22    90
 C    -2.54420  -2.97650   2.27690    92    91    87    26
 C    -4.29150  -2.30200   0.32320    93    90    77    88
 C    -0.63570  -4.09050  -1.48170    94    96    28    81
 C    -2.81760  -3.50160  -1.03450    95    96    90    79
 C    -1.68510  -4.17410  -0.71900    96    94    95    22
