    96
C96-C2-42                                                                       
 C     1.57270   3.57910   1.93450     1     2     5    57
 C     0.66130   4.16060   1.09230     2    55     1    15
 C     3.13930   1.49070   2.74610     3     4     6    58
 C     3.56160   2.23550   1.73070     4     3     5     7
 C     2.79890   3.28170   1.33070     5     4    13     1
 C     3.45300   0.17640   2.79040     6     3    70     9
 C     4.24320   1.66860   0.67650     7     4    17     8
 C     4.54890   0.29760   0.63450     8     7    23     9
 C     4.17440  -0.49600   1.77660     9    11     6     8
 C     3.91260  -2.42150   0.38120    10    22    11    96
 C     3.84920  -1.86290   1.64340    11    10    12     9
 C     2.84540  -2.41030   2.45910    12    67    93    11
 C     3.04950   3.43890  -0.01620    13    14     5    17
 C     2.07050   3.94480  -0.83500    14    16    15    13
 C     0.89160   4.32300  -0.26250    15    14    28     2
 C     1.96350   3.39610  -2.07690    16    14    19    26
 C     3.92270   2.43290  -0.42430    17     7    18    13
 C     3.85120   1.86890  -1.67990    18    17    19    24
 C     2.82930   2.41050  -2.48040    19    21    16    18
 C     2.42420   0.39750  -3.52340    20    21    25    35
 C     2.11100   1.66390  -3.36110    21    20    19    34
 C     4.23520  -1.65680  -0.72230    22    89    10    23
 C     4.54620  -0.28500  -0.67150    23    22     8    24
 C     4.17010   0.50170  -1.82090    24    25    18    23
 C     3.44900  -0.17850  -2.82430    25    90    20    24
 C     0.72550   3.19340  -2.68960    26    34    27    16
 C    -0.46930   3.58370  -2.13930    27    26    28    29
 C    -0.32780   4.20440  -0.89770    28    40    15    27
 C    -1.65860   2.86280  -2.44180    29    27    30    38
 C    -2.73390   2.98430  -1.50290    30    31    29    39
 C    -3.72960   2.02860  -1.53550    31    30    32    41
 C    -3.65370   0.90450  -2.33450    32    49    31    33
 C    -2.53970   0.62260  -3.14740    33    32    38    51
 C     0.81420   2.07920  -3.47110    34    26    21    37
 C     1.42550  -0.50470  -3.80270    35    82    20    36
 C     0.06690  -0.16430  -3.91420    36    35    52    37
 C    -0.26820   1.23000  -3.73610    37    34    38    36
 C    -1.54940   1.64190  -3.26780    38    37    33    29
 C    -2.51180   3.59530  -0.22490    39    40    43    30
 C    -1.29480   4.12130   0.04570    40    39    28    55
 C    -4.49590   1.69250  -0.42700    41    44    42    31
 C    -4.12920   2.16710   0.78480    42    43    41    45
 C    -3.15680   3.08090   0.88950    43    42    39    53
 C    -4.91560   0.41200  -0.53480    44    41    49    47
 C    -4.04620   1.33300   1.86590    45    46    61    42
 C    -4.40970   0.05320   1.73340    46    45    47    62
 C    -4.91570  -0.42110   0.56150    47    79    46    44
 C    -4.06380  -1.33750  -1.83020    48    49    50    78
 C    -4.41950  -0.05500  -1.71860    49    48    44    32
 C    -2.99450  -1.68910  -2.60090    50    48    87    51
 C    -2.19250  -0.77700  -3.31540    51    50    52    33
 C    -0.86410  -1.19860  -3.62640    52    36    51    84
 C    -2.47940   2.84790   2.09250    53    54    61    43
 C    -1.20570   3.26810   2.31570    54    53    55    56
 C    -0.67060   4.02930   1.29040    55     2    54    40
 C    -0.34720   2.50280   3.15020    56    54    57    65
 C     1.05850   2.72930   2.96480    57    58     1    56
 C     1.90360   1.70920   3.33920    58    60    57     3
 C     0.09230   0.17170   3.91300    59    60    65    69
 C     1.45190   0.50310   3.79540    60    58    70    59
 C    -2.98540   1.69200   2.63790    61    45    53    64
 C    -3.63750  -0.90880   2.34720    62    46    71    63
 C    -2.52140  -0.61580   3.15860    63    62    68    64
 C    -2.17620   0.78330   3.33780    64    61    65    63
 C    -0.84730   1.20270   3.63820    65    59    64    56
 C     0.84120  -2.07720   3.44670    66    76    67    69
 C     2.14140  -1.65990   3.34690    67    70    12    66
 C    -1.52770  -1.63480   3.26690    68    69    63    73
 C    -0.24130  -1.22370   3.72600    69    66    68    59
 C     2.44420  -0.39740   3.51360    70    67     6    60
 C    -3.73250  -2.03790   1.55220    71    72    62    79
 C    -2.72610  -2.98190   1.52050    72    71    73    81
 C    -1.63760  -2.85870   2.44490    73    75    72    68
 C    -0.31340  -4.20570   0.89990    74    80    94    75
 C    -0.44930  -3.57770   2.13970    75    76    74    73
 C     0.75390  -3.19730   2.67120    76    66    75    93
 C    -3.17500  -3.09020  -0.86590    77    78    81    87
 C    -4.15460  -2.18290  -0.75660    78    77    79    48
 C    -4.51350  -1.70230   0.45220    79    47    78    71
 C    -1.29310  -4.12200  -0.03530    80    81    74    85
 C    -2.50660  -3.59760   0.24090    81    80    77    72
 C     1.89350  -1.71010  -3.35610    82    35    83    90
 C     1.04420  -2.72840  -2.97310    83    82    92    84
 C    -0.36320  -2.49870  -3.14110    84    86    83    52
 C    -0.67560  -4.02390  -1.28480    85    91    86    80
 C    -1.22240  -3.26010  -2.30610    86    87    85    84
 C    -2.49380  -2.85280  -2.06910    87    86    50    77
 C     2.80080  -3.28350  -1.36680    88    89    96    92
 C     3.56100  -2.23740  -1.77620    89    90    88    22
 C     3.13670  -1.48980  -2.78530    90    89    25    82
 C     0.65710  -4.16170  -1.09770    91    85    92    94
 C     1.56030  -3.58120  -1.94820    92    91    88    83
 C     1.98970  -3.40360   2.05510    93    95    12    76
 C     0.90320  -4.33160   0.25270    94    95    91    74
 C     2.08750  -3.95190   0.81040    95    94    93    96
 C     3.05200  -3.44240  -0.01720    96    95    88    10
