    96
C96-C2-165                                                                      
 C    -4.59990  -0.19980  -0.26880     1     2     5    59
 C    -4.34760  -1.16120   0.70100     2    38    16     1
 C    -3.59760   1.55550  -2.16770     3     4    62     6
 C    -3.71490   0.26570  -2.46560     4     3     5     7
 C    -4.23680  -0.60750  -1.56350     5     4    14     1
 C    -2.54480   2.27980  -2.67240     6     3    64     9
 C    -2.77450  -0.34740  -3.25620     7    18     4     8
 C    -1.66600   0.30890  -3.77680     8     7    20     9
 C    -1.55730   1.72100  -3.48330     9     6    12     8
 C     1.26440   3.58890  -2.06740    10    92    70    11
 C    -0.05150   3.43490  -2.49250    11    10    65    12
 C    -0.30900   2.35600  -3.42670    12    13     9    11
 C     0.77280   1.55930  -3.77920    13    93    19    12
 C    -3.68350  -1.82870  -1.85470    14    15     5    18
 C    -3.49960  -2.76670  -0.88440    15    17    14    16
 C    -3.82080  -2.40530   0.40400    16    15     2    26
 C    -2.43310  -3.59550  -1.03730    17    15    24    23
 C    -2.75930  -1.66710  -2.89400    18     7    22    14
 C     0.68220   0.19390  -4.01340    19    20    86    13
 C    -0.50650  -0.50710  -3.97680    20    19     8    21
 C    -0.43590  -1.90290  -3.58100    21    22    20    37
 C    -1.62860  -2.45480  -3.03010    22    23    18    21
 C    -1.53120  -3.46940  -2.09830    23    35    22    17
 C    -1.73440  -4.09010   0.03640    24    30    17    25
 C    -1.97840  -3.67490   1.35640    25    26    24    31
 C    -3.05320  -2.82790   1.47830    26    27    25    16
 C    -3.08790  -1.84750   2.42390    27    26    28    38
 C    -2.00390  -1.64130   3.27950    28    29    27    32
 C    -1.89690  -0.33310   3.69040    29    28    55    39
 C    -0.49620  -4.38980  -0.40490    30    33    24    35
 C    -0.86800  -3.52440   2.23680    31    34    25    32
 C    -0.83580  -2.45460   3.20580    32    28    31    53
 C     0.52100  -4.38580   0.44090    33    30    91    34
 C     0.35520  -3.95500   1.73980    34    51    33    31
 C    -0.32940  -3.97400  -1.71180    35    23    30    36
 C     0.89320  -3.54390  -2.21460    36    35    90    37
 C     0.85430  -2.47850  -3.19080    37    87    36    21
 C    -3.92280  -0.82450   1.96320    38    40     2    27
 C    -2.74750   0.67460   3.25920    39    41    29    40
 C    -3.77560   0.48720   2.33680    40    38    39    58
 C    -2.03680   1.82630   3.33060    41    42    39    43
 C    -2.30380   2.81960   2.48440    42    41    57    44
 C    -0.76820   1.59040   3.76510    43    41    55    46
 C    -1.27080   3.60190   2.03000    44    42    63    45
 C     0.04470   3.44920   2.45760    45    44    68    46
 C     0.31340   2.38170   3.39990    46    43    49    45
 C     2.78420  -0.32180   3.25630    47    56    78    48
 C     1.67120   0.33730   3.77070    48    47    54    49
 C     1.56320   1.74840   3.45940    49    50    46    48
 C     2.54810   2.29840   2.64050    50    79    67    49
 C     1.55770  -3.45250   2.12180    51    34    52    82
 C     1.64540  -2.42620   3.04780    52    56    51    53
 C     0.45020  -1.87090   3.59330    53    52    54    32
 C     0.50890  -0.47250   3.97890    54    55    48    53
 C    -0.67680   0.22750   4.01260    55    54    29    43
 C     2.77660  -1.64210   2.89840    56    47    52    85
 C    -3.28880   2.68220   1.55090    57    42    60    58
 C    -4.06420   1.51660   1.40190    58    57    40    59
 C    -4.45700   1.16920   0.07390    59    62     1    58
 C    -2.85710   3.45080   0.50370    60    61    57    63
 C    -3.19170   3.11120  -0.73750    61    60    62    64
 C    -3.98270   2.02160  -0.94340    62    61     3    59
 C    -1.62090   4.00130   0.75690    63    60    44    66
 C    -2.29270   3.28960  -1.76090    64    61     6    65
 C    -1.03830   3.86050  -1.57690    65    64    11    66
 C    -0.67380   4.25780  -0.23260    66    63    69    65
 C     2.28750   3.29380   1.71690    67    72    50    68
 C     1.03000   3.86540   1.53690    68    67    45    69
 C     0.67330   4.25570   0.18900    69    70    66    68
 C     1.62030   3.99090  -0.79600    70    73    10    69
 C     3.97830   2.02400   0.92560    71    79    72    74
 C     3.19020   3.11470   0.69510    72    73    71    67
 C     2.85340   3.44280  -0.54580    73    72    76    70
 C     4.45130   1.16800  -0.09370    74    71    81    75
 C     4.05410   1.50600  -1.42610    75    76    94    74
 C     3.27450   2.66890  -1.58500    76    73    92    75
 C     4.24780  -0.59040   1.56710    77    78    85    81
 C     3.72770   0.29240   2.46820    78    79    77    47
 C     3.60650   1.57420   2.15940    79    78    71    50
 C     4.36430  -1.16910  -0.69290    80    96    83    81
 C     4.60480  -0.19380   0.26530    81    80    77    74
 C     2.45610  -3.59900   1.06090    82    84    91    51
 C     3.84500  -2.41470  -0.38600    83    84    80    89
 C     3.52010  -2.76420   0.90870    84    85    82    83
 C     3.70260  -1.81450   1.86620    85    84    77    56
 C     1.90370  -0.36750  -3.69790    86    87    19    95
 C     2.02200  -1.67010  -3.27070    87    86    88    37
 C     3.10270  -1.87640  -2.41080    88    89    87    96
 C     3.07720  -2.85280  -1.45980    89    88    90    83
 C     2.00200  -3.69790  -1.33000    90    89    91    36
 C     1.76310  -4.10660  -0.01240    91    33    82    90
 C     2.29480   2.80090  -2.52470    92    93    76    10
 C     2.04150   1.79220  -3.35490    93    92    95    13
 C     3.77800   0.46180  -2.34790    94    96    95    75
 C     2.75770   0.64400  -3.27650    95    93    86    94
 C     3.93310  -0.84340  -1.95880    96    94    80    88
