    42
C42-C1-39                                                                       
 C     0.27260   1.77260  -2.00260     1    26     2     4
 C     1.56520   1.82740  -1.53210     2    10     1     3
 C     1.74880   2.36030  -0.24690     3     8    24     2
 C    -0.25750   0.52120  -2.43470     4     1    30     5
 C     0.53750  -0.67570  -2.37100     5     9     6     4
 C    -0.14570  -1.83930  -1.92240     6    31     5    19
 C     3.11770   0.62360  -0.42710     7    14     8    10
 C     2.62140   1.56500   0.42950     8     3     7    13
 C     1.88250  -0.52680  -1.95190     9    10    21     5
 C     2.36990   0.72080  -1.58390    10     2     7     9
 C    -0.35830   1.39370   2.21740    11    25    12    18
 C     0.81090   1.96190   1.69220    12    11    13    24
 C     1.99470   1.21010   1.61950    13     8    12    16
 C     3.12690  -0.68390  -0.07860    14     7    15    21
 C     2.59720  -1.05920   1.12210    15    14    41    16
 C     1.95810  -0.15660   1.96400    16    15    17    13
 C     0.74490  -0.76470   2.34340    17    18    16    36
 C    -0.40970   0.00760   2.49650    18    17    39    11
 C     0.40600  -2.70600  -0.92620    19    20    42     6
 C     1.65320  -2.38720  -0.43530    20    21    19    41
 C     2.42640  -1.41250  -1.02350    21    20    14     9
 C    -0.58590   2.94340  -0.05960    22    23    24    26
 C    -1.71990   2.47870   0.58460    23    25    22    27
 C     0.66790   2.76570   0.51500    24     3    22    12
 C    -1.59080   1.70620   1.68910    25    23    40    11
 C    -0.74680   2.41920  -1.34410    26    28     1    22
 C    -2.55680   1.76200  -0.25410    27    28    23    32
 C    -1.89380   1.71260  -1.44540    28    26    27    30
 C    -2.22520  -0.63500  -1.61430    29    31    30    33
 C    -1.64000   0.52840  -2.08480    30    28    29     4
 C    -1.50670  -1.79970  -1.64120    31    34    29     6
 C    -2.99770   0.58340   0.32840    32    27    33    40
 C    -2.93680  -0.62790  -0.35940    33    32    35    29
 C    -1.78680  -2.52870  -0.55980    34    31    42    35
 C    -2.51420  -1.79470   0.28820    35    34    33    38
 C     0.63230  -2.02920   1.72840    36    41    37    17
 C    -0.58970  -2.50150   1.26070    37    36    42    38
 C    -1.76600  -1.72960   1.47270    38    39    35    37
 C    -1.66850  -0.48730   2.09150    39    40    38    18
 C    -2.35480   0.58850   1.57480    40    25    39    32
 C     1.75710  -2.11890   0.93130    41    15    36    20
 C    -0.64170  -2.98690  -0.04630    42    34    37    19
