    42
C42-C1-32                                                                       
 C     1.19450   1.79170   1.63640     1     2     3    31
 C     2.41580   1.48100   1.09070     2     1     7    26
 C     0.27460   2.51070   0.86980     3     1     5     8
 C    -1.58790   1.29270   1.86390     4    41    32     5
 C    -1.10900   2.32720   1.02690     5    39     3     4
 C     3.23010   0.52590  -0.64420     6    10    28     7
 C     2.72480   1.71100  -0.22850     7     6     2     9
 C     0.53960   2.66700  -0.52150     8    18     9     3
 C     1.69140   2.10370  -1.05760     9     7     8    14
 C     2.46090   0.11240  -1.66850    10     6    11    14
 C     2.12040  -1.20860  -1.48150    11    10    12    19
 C     0.88550  -1.65960  -1.91320    12    13    11    17
 C     0.21050  -2.59580  -1.18550    13    20    25    12
 C     1.49090   1.05100  -2.00380    14    10    16     9
 C    -0.88450   1.49530  -2.03030    15    18    38    16
 C     0.18950   0.65780  -2.41250    16    15    14    17
 C    -0.09480  -0.74770  -2.39700    17    35    12    16
 C    -0.68490   2.50410  -1.09280    18     8    39    15
 C     2.59900  -1.55580  -0.16780    19    28    21    11
 C     0.57460  -2.83240   0.10020    20    23    13    21
 C     1.67730  -2.23050   0.65120    21    20    19    29
 C    -1.65350  -2.44400   0.05470    22    24    25    23
 C    -0.53680  -2.67680   0.86160    23    20    30    22
 C    -2.57750  -1.50450   0.47380    24    22    34    37
 C    -1.12330  -2.34180  -1.22910    25    13    35    22
 C     2.71550   0.17540   1.42400    26    28    27     2
 C     1.66540  -0.33850   2.14790    27    26    29    31
 C     3.24810  -0.42860   0.31400    28     6    26    19
 C     1.17370  -1.61470   1.83650    29    27    30    21
 C    -0.20400  -1.88920   1.94950    30    23    33    29
 C     0.72850   0.68800   2.36830    31    32     1    27
 C    -0.63680   0.42360   2.44400    32    31    33     4
 C    -1.11430  -0.89050   2.29130    33    34    30    32
 C    -2.32380  -0.76810   1.63000    34    41    33    24
 C    -1.37580  -1.23870  -2.01770    35    25    36    17
 C    -2.37260  -0.35860  -1.64820    36    38    35    37
 C    -3.03860  -0.53250  -0.42140    37    42    24    36
 C    -2.14410   0.99280  -1.70670    38    36    40    15
 C    -1.72520   2.47930  -0.21230    39    40    18     5
 C    -2.71490   1.63980  -0.62870    40    42    39    38
 C    -2.68030   0.53670   1.44040    41    34    42     4
 C    -3.22980   0.69080   0.19780    42    40    41    37
