    42
C42-Cs-22                                                                       
 C    -2.87030  -1.16500   1.08260     1     2    31     8
 C    -3.44180  -0.00100   0.67270     2     1     5    20
 C     0.49910  -2.11980   1.17480     3     4    17    35
 C    -0.86060  -2.15400   1.14050     4     3    30     8
 C    -2.86690   1.15930   1.08830     5     9     2     6
 C    -1.64910   1.18740   1.77290     6     5    11     7
 C    -0.97610   0.00220   2.22300     7     8    18     6
 C    -1.65640  -1.17730   1.77860     8     1     4     7
 C    -2.70900   1.95760  -0.00010     9    12    19     5
 C     0.49140   2.12100   1.18450    10    11    15    26
 C    -0.86490   2.17350   1.14130    11    10    12     6
 C    -1.51920   2.54680  -0.01910    12     9    11    28
 C     3.22180   0.00150   1.20880    13    14    16    40
 C     2.45500   1.11050   1.39740    14    13    37    15
 C     1.18140   1.16380   1.92140    15    14    10    18
 C     2.46500  -1.11710   1.39250    16    13    42    17
 C     1.18770  -1.16450   1.91390    17    16     3    18
 C     0.45650  -0.00500   2.30680    18    17    15     7
 C    -2.88260   1.17010  -1.09040    19     9    20    22
 C    -3.46860  -0.01060  -0.72370    20    21    19     2
 C    -2.89420  -1.18380  -1.10450    21    31    20    25
 C    -1.65140   1.21420  -1.75410    22    19    24    28
 C     0.38250   0.01550  -2.23240    23    24    29    32
 C    -1.01670   0.00180  -2.15380    24    23    25    22
 C    -1.65250  -1.20730  -1.75370    25    21    24    34
 C     1.26880   2.37810   0.02590    26    37    10    27
 C     0.56770   2.16270  -1.20170    27    28    29    26
 C    -0.82230   2.22050  -1.17500    28    12    27    22
 C     1.19470   1.13120  -1.92610    29    39    27    23
 C    -1.53250  -2.53470  -0.01030    30    31     4    34
 C    -2.72410  -1.97030  -0.00860    31    30    21     1
 C     1.18130  -1.10700  -1.90040    32    36    33    23
 C     0.57310  -2.14950  -1.17010    33    34    32    35
 C    -0.81680  -2.19650  -1.15770    34    33    30    25
 C     1.29700  -2.39670   0.03750    35    42     3    33
 C     2.46480  -0.67390  -1.61780    36    39    41    32
 C     2.52720   1.84230   0.23910    37    14    38    26
 C     3.30540   1.12410  -0.63720    38    39    37    40
 C     2.46680   0.69180  -1.62950    39    36    38    29
 C     3.81670  -0.01290  -0.03610    40    13    38    41
 C     3.31020  -1.15160  -0.64040    41    42    36    40
 C     2.55990  -1.87610   0.24430    42    41    16    35
