    42
C42-C1-14                                                                       
 C    -2.86060  -0.60670  -1.10640     1     6     4    26
 C    -0.56240  -1.81480  -1.80960     2     5     3    27
 C    -1.25180  -2.34300  -0.74130     3     2     4    10
 C    -2.45480  -1.73180  -0.38290     4     8     3     1
 C     0.76290  -1.92160  -1.62740     5     2    34    40
 C    -3.33730   0.34410  -0.21720     6    14     7     1
 C    -3.11150  -0.12110   1.05380     7     6     8    15
 C    -2.65080  -1.42210   0.94670     8     9     4     7
 C    -1.59990  -1.60900   1.78650     9     8    16    11
 C    -0.21470  -2.67390   0.17690    10    11    40     3
 C    -0.40560  -2.20740   1.49020    11     9    37    10
 C    -1.98400   2.20180   0.21720    12    18    14    13
 C    -1.62570   1.73380   1.47610    13    12    15    23
 C    -2.77970   1.51120  -0.64210    14    12     6    25
 C    -2.21340   0.54300   1.90490    15    16    13     7
 C    -1.32310  -0.40090   2.36120    16     9    15    21
 C     0.22590   2.56360   0.41360    17    18    19    23
 C    -0.84300   2.56600  -0.42020    18    17    12    28
 C     1.49760   2.33990  -0.04240    19    17    20    29
 C     2.45700   1.75690   0.74680    20    35    19    24
 C     0.03730  -0.24200   2.50630    21    16    22    37
 C     0.66380   0.99980   2.22100    22    24    21    23
 C    -0.22420   1.93920   1.61090    23    13    17    22
 C     2.00390   0.94780   1.79260    24    20    39    22
 C    -2.00860   1.32300  -1.76450    25    14    26    28
 C    -2.05450  -0.01780  -2.08840    26    27    25     1
 C    -0.86300  -0.61810  -2.43020    27    26     2    31
 C    -0.78800   1.99130  -1.68800    28    18    25    30
 C     1.61200   1.75750  -1.34610    29    32    30    19
 C     0.44250   1.42930  -2.08830    30    28    29    31
 C     0.38150   0.05790  -2.50370    31    34    27    30
 C     2.71230   0.91070  -1.21240    32    35    33    29
 C     2.59400  -0.43550  -1.52570    33    34    32    42
 C     1.42680  -0.82390  -2.13380    34    33     5    31
 C     3.32330   1.03740  -0.00340    35    36    20    32
 C     3.49840  -0.18480   0.48930    36    35    42    39
 C     0.63720  -1.45380   2.05140    37    38    11    21
 C     1.90890  -1.41950   1.50900    38    39    37    41
 C     2.66450  -0.27030   1.57100    39    36    38    24
 C     1.05430  -2.50000  -0.40580    40     5    41    10
 C     2.17770  -2.00060   0.24410    41    40    42    38
 C     3.07320  -1.13460  -0.38550    42    36    41    33
