    42
C42-C2-27                                                                       
 C    -0.33480  -1.67290  -1.88430     1     2     3    31
 C    -1.49120  -1.95080  -1.22270     2     1    26     8
 C     0.89600  -1.98160  -1.35140     3     1     5     6
 C     1.85700   0.01900  -2.14820     4    42     5    32
 C     2.07320  -1.25680  -1.59120     5    17     3     4
 C     0.92490  -2.36280   0.01600     6    11     3     7
 C    -0.26250  -2.27250   0.79920     7     8     6    14
 C    -1.50340  -2.24960   0.12840     8     9     2     7
 C    -2.63410  -1.61360   0.57580     9    10     8    25
 C    -2.52600  -0.81250   1.67000    10    19     9    15
 C     2.15420  -1.97110   0.44860    11    12     6    17
 C     2.28220  -1.29330   1.61290    12    16    11    13
 C     1.12150  -0.81840   2.18690    13    12    14    21
 C    -0.14920  -1.37250   1.94790    14    15    13     7
 C    -1.27570  -0.57290   2.21160    15    10    14    23
 C     3.17640  -0.31090   1.36950    16    35    12    41
 C     2.93940  -1.36840  -0.50660    17    11    41     5
 C    -2.29990   1.29440   1.64820    18    19    20    23
 C    -3.20680   0.32320   1.37980    19    10    18    24
 C    -2.14750   1.94050   0.46570    20    18    39    27
 C     1.28880   0.60300   2.21700    21    35    22    13
 C     0.14710   1.39590   1.96440    22    23    21    38
 C    -1.12520   0.84660   2.22420    23    18    22    15
 C    -3.64200   0.29480   0.07570    24    25    19    27
 C    -3.32990  -0.94410  -0.42900    25    26    24     9
 C    -2.50830  -1.08160  -1.51860    26     2    25    29
 C    -2.90880   1.32880  -0.50050    27    20    28    24
 C    -2.06350   1.22410  -1.59730    28    27    30    29
 C    -1.86700  -0.04170  -2.18410    29    26    31    28
 C    -0.89860   1.97190  -1.34120    30    33    28    39
 C    -0.55240  -0.43060  -2.50330    31    32     1    29
 C     0.54380   0.42560  -2.47630    32    31    33     4
 C     0.33620   1.66650  -1.86610    33    34    30    32
 C     1.48620   1.95180  -1.20840    34    33    42    37
 C     2.54150   0.84020   1.66890    35    16    36    21
 C     2.64600   1.63760   0.57900    36    35    37    40
 C     1.50320   2.27580   0.13770    37    36    34    38
 C     0.26000   2.29290   0.80930    38    37    39    22
 C    -0.92550   2.35680   0.02800    39    20    38    30
 C     3.33500   0.93190  -0.41230    40    42    41    36
 C     3.64250  -0.31470   0.06680    41    40    16    17
 C     2.49500   1.07300  -1.48580    42    34    40     4
