    42
C42-C1-9                                                                        
 C     2.81340   1.54600  -0.64540     1    14     3     2
 C     1.60050   2.13200  -0.96920     2     1     4     6
 C     3.12490   0.29020  -1.09060     3     1    23    12
 C     0.71760   1.54770  -1.89050     4     5     2    24
 C    -0.66140   1.68290  -1.78770     5     4     8    34
 C     0.99470   2.52290   0.24320     6     7    13     2
 C    -0.36520   2.52480   0.36980     7     6     8    19
 C    -1.24990   2.34000  -0.69800     8     9     7     5
 C    -2.43880   1.89330  -0.20900     9     8    37    10
 C    -3.24270   0.91710  -0.73890    10     9    42    33
 C     3.20050   0.26700   1.09940    11    14    12    16
 C     3.49820  -0.51360  -0.01440    12    15    11     3
 C     1.79940   1.99750   1.23500    13    14     6    21
 C     2.93530   1.53410   0.69930    14    13     1    11
 C     2.85390  -1.69830  -0.15970    15    12    18    22
 C     2.09670  -0.07980   1.90180    16    17    11    21
 C     1.50460  -1.33130   1.74680    17    16    18    41
 C     1.96220  -2.18900   0.74490    18    30    15    17
 C    -0.97330   1.85950   1.46790    19    37     7    20
 C    -0.18640   0.88900   2.16330    20    21    19    40
 C     1.21610   1.01900   2.03840    21    13    20    16
 C     2.07140  -1.60890  -1.29950    22    23    15    25
 C     2.19360  -0.36980  -1.87810    23    22     3    24
 C     1.00920   0.22950  -2.29420    24    23    28     4
 C     0.84630  -2.23860  -1.14280    25    22    30    27
 C    -1.54150  -1.96600  -1.02070    26    32    27    31
 C    -0.33330  -1.73110  -1.71270    27    25    26    28
 C    -0.22830  -0.43610  -2.31470    28    34    24    27
 C    -0.28320  -2.45330   0.91700    29    30    31    41
 C     0.83610  -2.68040   0.18040    30    18    29    25
 C    -1.52110  -2.34250   0.35090    31    29    36    26
 C    -2.65940  -1.15770  -1.11920    32    35    26    33
 C    -2.52780   0.11730  -1.64570    33    32    34    10
 C    -1.28560   0.47570  -2.16230    34    33    28     5
 C    -3.40850  -1.11020   0.01640    35    42    32    36
 C    -2.53150  -1.62070   0.92940    36    35    31    39
 C    -2.27180   1.60230   1.11900    37    38    19     9
 C    -2.97580   0.47920   1.40110    38    37    42    39
 C    -2.16370  -0.58300   1.80290    39    38    36    40
 C    -0.79820  -0.42880   2.19510    40    41    39    20
 C     0.11020  -1.48060   1.87500    41    17    29    40
 C    -3.73880   0.15400   0.30040    42    35    38    10
