    42
C42-C1-3                                                                        
 C     0.36650  -0.88990  -2.14430     1    24     5     2
 C     1.03780  -1.87910  -1.35470     2     3     4     1
 C     2.33830  -1.61610  -0.90200     3    23    12     2
 C     0.12170  -2.44590  -0.44520     4     7    10     2
 C    -1.02940  -0.72260  -2.17290     5     6     1    28
 C    -1.88170  -1.58070  -1.49390     6     7     8     5
 C    -1.23260  -2.35010  -0.56900     7    16     4     6
 C    -3.01600  -1.09210  -0.86420     8     9     6    36
 C    -3.40750   0.22190  -0.90320     9     8    42    27
 C     0.36980  -2.26610   0.93000    10    11    17     4
 C     1.58560  -1.78050   1.28230    11    10    12    19
 C     2.69290  -1.76330   0.44550    12    13    11     3
 C     3.54760  -0.77310   0.79100    13    12    20    14
 C     2.80480   0.01840   1.62010    14    15    13    19
 C     2.77480   1.27590   1.10330    15    14    41    21
 C    -1.87170  -2.18290   0.62010    16    36     7    17
 C    -0.84210  -1.85870   1.48500    17    16    10    39
 C     0.36160   0.11800   2.18930    18    19    39    40
 C     1.59870  -0.56230   1.98440    19    14    11    18
 C     3.89400  -0.01200  -0.28380    20    21    13    23
 C     3.48530   1.26550  -0.07610    21    25    20    15
 C     2.26320   0.56970  -1.76110    22    24    23    25
 C     3.03890  -0.46500  -1.27340    23    22    20     3
 C     0.96940   0.37540  -2.18760    24    22    32     1
 C     2.54710   1.67870  -0.96150    25    21    29    22
 C    -2.25990   2.03050  -0.44350    26    33    30    27
 C    -2.45750   1.09460  -1.45070    27    26    28     9
 C    -1.30340   0.65800  -2.09690    28    27    32     5
 C     1.42550   2.24000  -0.36600    29    25    31    41
 C    -0.96250   2.38210  -0.10330    30    26    31    35
 C     0.14980   2.23640  -0.93150    31    30    29    32
 C    -0.06440   1.28390  -1.96660    32    24    28    31
 C    -3.00400   1.68470   0.62820    33    42    34    26
 C    -2.06080   1.45230   1.56250    34    33    35    38
 C    -0.83520   1.98860   1.26230    35    34    40    30
 C    -3.01240  -1.48280   0.46780    36    16    37     8
 C    -3.27670  -0.38600   1.22880    37    36    42    38
 C    -2.14670   0.11310   1.93560    38    34    37    39
 C    -0.91100  -0.57540   2.12480    39    38    17    18
 C     0.38890   1.50000   1.69480    40    35    41    18
 C     1.55550   1.90220   1.01520    41    15    40    29
 C    -3.74390   0.59560   0.38430    42    33    37     9
