    42
C42-C1-34                                                                       
 C    -2.19810   0.73360  -1.75660     1    31     3     2
 C    -1.76560  -0.58210  -1.92550     2     1     6    10
 C    -1.27240   1.75350  -1.64050     3     4     1    34
 C     0.03850   1.54670  -2.01960     4     3     9     5
 C     0.43570   0.24600  -2.41520     5    17     6     4
 C    -0.42430  -0.86800  -2.27490     6     5     2     7
 C     0.15880  -2.02900  -1.70650     7    11     6    15
 C     0.84790   2.75090  -0.12270     8    41    33     9
 C     1.12910   2.15110  -1.37340     9    39     4     8
 C    -2.48820  -1.33180  -0.94970    10    12    20     2
 C    -0.55990  -2.77350  -0.77790    11    13    12     7
 C    -1.76500  -2.31320  -0.28630    12    11    10    21
 C     0.29970  -3.10670   0.19070    13    16    11    22
 C     2.30590  -0.92840  -1.46590    14    17    15    38
 C     1.52290  -2.04590  -1.26450    15    14    16     7
 C     1.54030  -2.67950  -0.01840    16    13    35    15
 C     1.76550   0.17520  -2.07060    17    39    14     5
 C    -2.86420  -0.20820   1.04550    18    19    24    20
 C    -1.95560  -1.00480   1.69320    19    18    21    29
 C    -3.24480  -0.38160  -0.26800    20    31    18    10
 C    -1.50560  -2.17250   1.11300    21    22    19    12
 C    -0.21040  -2.58290   1.31690    22    13    21    27
 C    -1.39960   1.17170   1.93270    23    24    25    29
 C    -2.55190   1.11800   1.20120    24    23    18    32
 C    -0.42170   2.08960   1.58440    25    26    23    33
 C     0.88490   1.79720   1.81480    26    41    25    30
 C     0.77020  -1.76470   1.87010    27    22    28    35
 C     0.39380  -0.49420   2.39050    28    30    27    29
 C    -0.99040  -0.14530   2.28600    29    19    23    28
 C     1.32610   0.54000   2.20920    30    37    26    28
 C    -3.14870   0.85050  -0.81660    31     1    20    32
 C    -2.73460   1.82840   0.03240    32    31    24    34
 C    -0.48760   2.76690   0.33330    33    34     8    25
 C    -1.60220   2.47440  -0.46250    34    32    33     3
 C     1.95310  -1.90860   1.06970    35    36    16    27
 C     2.76820  -0.81270   0.85370    36    35    37    38
 C     2.51350   0.38020   1.50690    37    36    42    30
 C     3.08360  -0.38240  -0.43790    38    40    36    14
 C     2.23420   1.32210  -1.50530    39    17    40     9
 C     3.10730   1.00130  -0.49510    40    42    39    38
 C     1.72180   2.32660   0.88470    41    26    42     8
 C     2.78840   1.49300   0.72880    42    40    41    37
