    42
C42-C2-40                                                                       
 C    -1.92790   2.11570   1.17400     1     2     4    25
 C    -1.11000   1.60630   2.09360     2     1    27     9
 C     0.10420   2.79110   0.65980     3     5     4     9
 C    -1.22500   2.74350   0.23150     4     1    13     3
 C     1.10490   2.66190  -0.27080     5     6     3    11
 C     2.24000   1.94370   0.00950     6     5    18    10
 C     0.90020  -0.22770   2.45290     7    40    28     8
 C     1.29090   1.10390   2.05220     8     9    10     7
 C     0.20050   1.99390   1.84700     9     2     8     3
 C     2.40930   1.16250   1.15180    10     6    42     8
 C     0.72820   2.24080  -1.55190    11    19    12     5
 C    -0.56630   1.90780  -1.87680    12    11    13    16
 C    -1.60060   2.19110  -0.99310    13    12     4    14
 C    -2.58340   1.21350  -0.71760    14    15    25    13
 C    -2.53260   0.00030  -1.39180    15    14    20    17
 C    -0.46920   0.63840  -2.49140    16    17    12    35
 C    -1.47110  -0.29210  -2.29220    17    22    16    15
 C     2.59370   1.20350  -1.10030    18    39    19     6
 C     1.60680   1.31620  -2.00460    19    18    11    35
 C    -2.73460  -1.17410  -0.65710    20    21    23    15
 C    -1.92810  -2.10400  -1.18060    21    22    32    20
 C    -1.11430  -1.60890  -2.10740    22    21    17    38
 C    -2.58010  -1.20890   0.72890    23    24    20    26
 C    -2.54760   0.01080   1.39450    24    23    25    27
 C    -2.74900   1.18430   0.67040    25     1    24    14
 C    -1.59620  -2.19250   0.98940    26    29    32    23
 C    -1.47430   0.28770   2.28540    27    28     2    24
 C    -0.46890  -0.64100   2.47060    28    27    29     7
 C    -0.55630  -1.90940   1.86720    29    30    26    28
 C     0.73390  -2.24330   1.54930    30    40    29    33
 C     0.11080  -2.80430  -0.65680    31    33    32    38
 C    -1.21980  -2.73780  -0.24820    32    21    31    26
 C     1.11240  -2.66940   0.27360    33    34    31    30
 C     2.24730  -1.94300   0.00830    34    33    41    36
 C     0.90050   0.22850  -2.47770    35    19    16    37
 C     2.37040  -1.15590  -1.13490    36    34    39    37
 C     1.27440  -1.10190  -2.06080    37    38    36    35
 C     0.19570  -2.00080  -1.85210    38    22    37    31
 C     3.00210   0.00540  -0.66060    39    18    42    36
 C     1.62440  -1.32220   1.98810    40    41    30     7
 C     2.64890  -1.20870   1.11720    41    42    40    34
 C     3.05420  -0.00400   0.71570    42    41    39    10
