    42
C42-Cs-19                                                                       
 C     2.97590   1.13170  -0.65590     1     6     2    29
 C     1.97220   1.78400  -1.31910     2     3     1     7
 C     1.37120   0.93080  -2.18720     3     2    32    15
 C     1.98100   1.78400   1.33100     4    17     6     5
 C     0.99480   2.52520   0.69940     5     4     9     7
 C     2.99600   1.11770   0.69510     6     1     4    25
 C     0.98010   2.52760  -0.70690     7     2     8     5
 C    -0.22640   2.24640  -1.35790     8    11     7    15
 C    -0.21370   2.23620   1.35570     9    10     5    20
 C    -1.42780   2.27810   0.69780    10    24     9    11
 C    -1.44430   2.28430  -0.71420    11    12     8    10
 C    -2.50520   1.47360  -1.04890    12    38    11    16
 C    -0.34610  -1.20740  -2.18170    13    40    31    14
 C    -0.92450   0.10370  -2.31980    14    16    15    13
 C     0.01340   1.16460  -2.24410    15     3    14     8
 C    -2.21510   0.29340  -1.76710    16    42    12    14
 C     1.37810   0.93110   2.19720    17     4    20    18
 C     1.96160  -0.31310   2.09060    18    17    19    25
 C     1.07920  -1.38070   2.05910    19    28    18    23
 C     0.02310   1.16720   2.25830    20    17    22     9
 C    -2.18440   0.31020   1.77190    21    37    24    22
 C    -0.90850   0.10570   2.33710    22    21    20    23
 C    -0.32890  -1.19230   2.18700    23    35    19    22
 C    -2.49440   1.47920   1.05910    24    38    10    21
 C     2.96200  -0.19080   1.11530    25     6    26    18
 C     2.96130  -1.04850   0.00800    26    27    25    29
 C     2.09930  -2.13270   0.01580    27    26    28    30
 C     1.23900  -2.35050   1.08820    28    33    19    27
 C     2.91370  -0.17960  -1.09810    29     1    32    26
 C     1.23730  -2.32390  -1.07620    30    34    31    27
 C     1.06860  -1.37970  -2.06780    31    32    30    13
 C     1.93760  -0.31630  -2.09300    32     3    31    29
 C     0.02510  -2.77400   0.67540    33    28    34    35
 C     0.01260  -2.76710  -0.68140    34    33    30    40
 C    -0.98020  -2.13910   1.35320    35    33    36    23
 C    -2.15070  -1.79620   0.69430    36    37    35    41
 C    -2.86870  -0.67530   1.04600    37    39    36    21
 C    -3.29950   1.16160   0.00740    38    39    12    24
 C    -3.53470  -0.14520  -0.02110    39    38    42    37
 C    -1.00810  -2.16840  -1.36670    40    34    41    13
 C    -2.19870  -1.83120  -0.73880    41    42    40    36
 C    -2.92510  -0.72300  -1.09300    42    39    41    16
