    42
C42-C1-25                                                                       
 C    -1.17890   2.62040   0.40530     1     3     2    20
 C    -0.11690   2.71230  -0.44890     2    29     1    10
 C    -2.25780   2.08740  -0.21160     3     1     6     4
 C    -3.02510   1.04170   0.26980     4     3    12     5
 C    -2.51920   0.49370   1.47880     5    11     4    22
 C    -1.80950   1.76030  -1.46990     6     7     3    10
 C    -2.35590   0.58180  -1.78640     7     6    42    12
 C     1.79880   1.18390  -1.66680     8    38    28     9
 C     0.44790   1.11710  -2.14810     9    10     8    41
 C    -0.47060   2.05380  -1.62240    10     6     2     9
 C    -2.40110  -0.89340   1.55160    11    15    14     5
 C    -3.22110   0.14560  -0.79730    12    13     7     4
 C    -3.02340  -1.19800  -0.65980    13    14    12    37
 C    -2.67060  -1.76000   0.52790    14    13    11    18
 C    -1.20190  -1.22360   2.08710    15    11    16    19
 C    -0.54260  -0.09160   2.46080    16    15    17    22
 C     0.83740  -0.07650   2.37450    17    16    23    26
 C    -1.51920  -2.50520   0.39480    18    34    14    19
 C    -0.58630  -2.26480   1.40730    19    15    18    25
 C    -0.66830   2.12110   1.57840    20     1    22    21
 C     0.73610   2.11980   1.47230    21    23    20    29
 C    -1.34060   1.00960   2.09490    22    20    16     5
 C     1.51400   1.07940   1.97310    23    24    21    17
 C     2.66100   0.67710   1.35620    24    23    27    31
 C     0.80350  -2.22200   1.20380    25    19    26    36
 C     1.56130  -1.18890   1.84990    26    27    17    25
 C     2.74490  -0.69240   1.31700    27    33    24    26
 C     2.15020   1.94210  -0.49950    28    29    31     8
 C     1.08420   2.53910   0.15630    29     2    28    21
 C     3.49810   0.09680  -0.55600    30    31    38    33
 C     3.11140   1.18300   0.15510    31    30    24    28
 C     2.41700  -1.83270  -0.59750    32    33    39    36
 C     3.29690  -1.08510   0.12600    33    32    27    30
 C    -1.08330  -2.36940  -0.90110    34    35    18    37
 C     0.25640  -2.28510  -1.16480    35    34    40    36
 C     1.24160  -2.42230  -0.15560    36    32    35    25
 C    -1.97170  -1.51380  -1.51280    37    34    42    13
 C     2.64520   0.09140  -1.62550    38    39    30     8
 C     2.03810  -1.10840  -1.70740    39    38    40    32
 C     0.74010  -1.29230  -2.04890    40    39    35    41
 C    -0.11620  -0.21520  -2.43190    41    42    40     9
 C    -1.50580  -0.41550  -2.22460    42     7    37    41
