    42
C42-C1-26                                                                       
 C    -2.28520   0.63300  -1.89870     1     4     2     8
 C    -2.67760  -0.60510  -1.53880     2     1     6    25
 C    -1.74050   2.27060  -0.61680     3     4    31    15
 C    -2.76440   1.49410  -0.98180     4     3     1    26
 C     0.61540  -2.12520  -1.25570     5    12    17     7
 C    -1.73080  -1.59960  -1.49750     6     2    19     7
 C    -0.40480  -1.42720  -1.96710     7     6     5    10
 C    -0.96610   0.92460  -2.18570     8     1    10    15
 C     1.36720   0.29390  -2.22370     9    11    10    16
 C     0.01120  -0.07810  -2.38580    10     8     9     7
 C     2.35070  -0.62860  -1.91290    11    12    23     9
 C     1.91440  -1.74220  -1.29530    12    11     5    21
 C     0.81410   2.45760   0.43550    13    42    32    14
 C     0.69640   2.25280  -0.98140    14    15    16    13
 C    -0.61480   2.07230  -1.41980    15    14     3     8
 C     1.75800   1.50030  -1.55180    16    41    14     9
 C     0.37870  -2.55160   0.07360    17    18     5    22
 C    -0.88880  -2.48440   0.55760    18    17    19    20
 C    -1.95630  -2.15660  -0.24130    19    18    24     6
 C    -1.13670  -1.82300   1.73510    20    27    18    39
 C     2.50900  -1.81030  -0.06680    21    12    35    22
 C     1.50230  -2.12430   0.82580    22    21    17    38
 C     3.30620  -0.05500  -1.14570    23    41    11    35
 C    -2.92670  -1.46390   0.45000    24    25    27    19
 C    -3.42460  -0.48760  -0.35540    25    24    26     2
 C    -3.34630   0.83760   0.04750    26     4    25    29
 C    -2.32130  -1.15430   1.63940    27    20    24    28
 C    -2.06170   0.15730   1.99630    28    27    29    30
 C    -2.55280   1.18750   1.16100    29    26    28    31
 C    -0.72160   0.17120   2.44820    30    33    28    39
 C    -1.59850   2.15280   0.74760    31    32     3    29
 C    -0.32000   2.19910   1.24780    32    31    33    13
 C     0.10300   1.24870   2.18350    33    34    30    32
 C     1.43790   1.09400   2.01620    34    33    42    37
 C     3.38980  -0.76670   0.03720    35    36    21    23
 C     3.14000   0.10740   1.04990    36    35    40    37
 C     2.10560  -0.12160   1.96810    37    34    36    38
 C     1.26010  -1.26980   1.96070    38    39    37    22
 C    -0.10930  -1.10730   2.31100    39    20    38    30
 C     2.98630   1.37060   0.46160    40    42    41    36
 C     2.97470   1.22730  -0.89240    41    23    40    16
 C     1.92600   1.93080   1.06500    42    40    34    13
