    42
C42-C1-8                                                                        
 C     3.42240   0.55710  -0.85230     1     2     7    25
 C     2.74260   1.70970  -0.64370     2     1    32     4
 C     0.43570   2.31550  -1.01780     3     4    15     6
 C     1.59760   1.71960  -1.44160     4     3     2     9
 C    -1.00690   2.51920   0.58050     5     6    40    37
 C     0.31410   2.64980   0.35150     6     5    31     3
 C     2.64020  -0.19500  -1.67750     7     8     1     9
 C     2.52350  -1.40940  -1.12230     8     7    10    16
 C     1.48160   0.46530  -2.05870     9     7     4    12
 C     1.31420  -2.04670  -1.10640    10     8    18    11
 C     0.14770  -1.53660  -1.72920    11    22    10    12
 C     0.19730  -0.14510  -2.18260    12     9    14    11
 C    -2.27430   0.02000  -1.71780    13    21    42    14
 C    -1.01500   0.64120  -2.01830    14    13    15    12
 C    -0.84530   1.94580  -1.44040    15    40     3    14
 C     3.15700  -1.42020   0.11110    16    17    25     8
 C     2.19860  -1.97600   0.91040    17    18    16    26
 C     1.19270  -2.55060   0.18660    18    20    17    10
 C    -1.17160  -2.53610   0.06500    19    20    30    22
 C    -0.01630  -2.52740   0.79430    20    18    19    27
 C    -2.26970  -1.32580  -1.38580    21    22    38    13
 C    -1.08400  -1.97600  -1.23700    22    21    11    19
 C     2.94010   0.59830   1.25140    23    32    25    24
 C     1.86840   0.09990   1.99590    24    26    23    34
 C     3.63780  -0.14320   0.31200    25     1    16    23
 C     1.49900  -1.23480   1.86070    26    24    17    27
 C     0.13960  -1.57600   1.83250    27    26    20    28
 C    -0.93610  -0.67940   2.05750    28    27    29    33
 C    -2.19840  -1.02520   1.48840    29    35    30    28
 C    -2.36210  -2.05910   0.55180    30    38    19    29
 C     1.26560   2.11060   1.19180    31    32     6    34
 C     2.49520   1.78160   0.70670    32    31     2    23
 C    -0.55870   0.72370   2.12110    33    37    34    28
 C     0.82650   1.04800   2.02570    34    24    31    33
 C    -3.10880  -0.07200   1.04520    35    36    39    29
 C    -2.67850   1.20070   0.99580    36    35    37    41
 C    -1.48330   1.60940   1.51290    37    36     5    33
 C    -3.19940  -1.57370  -0.41070    38    39    30    21
 C    -3.75710  -0.39720  -0.12770    39    38    35    42
 C    -1.79740   2.37940  -0.52710    40    41     5    15
 C    -2.93200   1.69890  -0.27220    41    40    42    36
 C    -3.34430   0.61270  -0.97550    42    41    39    13
