    42
C42-C1-4                                                                        
 C    -1.17810   2.32260  -0.26210     1     2    22     9
 C    -2.41880   1.76260  -0.34840     2     1    21     8
 C     2.22530   1.81540  -0.98270     3     4     5    31
 C     1.01570   2.41670  -0.72180     4    23     9     3
 C     2.09740   0.68020  -1.78010     5     6     3    10
 C     2.79100  -0.45150  -1.41180     6    37     5     7
 C     3.60020  -0.60100  -0.29340     7    42    30     6
 C    -2.72460   0.94190  -1.42680     8    13     2    12
 C    -0.21120   2.16370  -1.27710     9     4     1    11
 C     0.80580   0.28600  -2.23110    10    11    16     5
 C    -0.37470   1.05490  -2.13420    11    12     9    10
 C    -1.61880   0.41850  -2.08550    12     8    11    18
 C    -3.57210  -0.00400  -0.94090    13    19     8    14
 C    -2.83990  -1.15440  -1.08150    14    15    13    18
 C    -2.73740  -1.77010   0.13670    15    14    20    41
 C     0.72240  -1.11170  -2.00540    16    37    17    10
 C    -0.49040  -1.67510  -1.57950    17    18    16    40
 C    -1.68060  -0.97220  -1.81460    18    14    17    12
 C    -3.85770   0.14620   0.37790    19    20    13    21
 C    -3.35690  -0.92650   1.02800    20    19    27    15
 C    -3.01590   1.17960   0.75820    21     2    19    24
 C    -0.44250   2.31910   0.93670    22    23     1    25
 C     0.85870   2.53320   0.61990    23    26     4    22
 C    -2.08550   0.77030   1.73110    24    27    25    21
 C    -0.78630   1.28950   1.86130    25    24    22    28
 C     1.92240   1.95260   1.17560    26    23    29    31
 C    -2.32800  -0.58800   1.83670    27    20    34    24
 C     0.33500   0.42330   2.21030    28    29    25    36
 C     1.68310   0.84230   1.95790    29    33    26    28
 C     3.48020   0.46270   0.58840    30    31    33     7
 C     2.90420   1.65620   0.23660    31    30    26     3
 C     2.44500  -1.32410   1.39380    32    33    42    35
 C     2.69900  -0.02430   1.62410    33    32    29    30
 C    -1.22170  -1.38900   1.69130    34    27    36    41
 C     1.13570  -1.75980   1.45080    35    32    36    39
 C     0.07960  -1.00090   1.99840    36    34    35    28
 C     1.93570  -1.50530  -1.51670    37     6    38    16
 C     2.09210  -2.34140  -0.45290    38    42    37    39
 C     0.90450  -2.49850   0.24220    39    38    40    35
 C    -0.38750  -2.40470  -0.30710    40    41    39    17
 C    -1.48480  -2.18730   0.53740    41    15    40    34
 C     3.07880  -1.74670   0.26450    42    38    32     7
