    42
C42-C2v-13                                                                      
 C     1.43120  -2.01490  -1.09720     1     2     3    28
 C     2.65510  -1.57260  -0.66330     2     1    23     7
 C     0.68420  -1.26720  -2.01040     3     5     1     8
 C    -1.42560  -2.03440  -1.09290     4    41     5    29
 C    -0.69570  -1.26310  -2.00810     5     3     4    38
 C     3.77160   0.21020  -0.01490     6    10     7    25
 C     3.25510  -0.41890  -1.11450     7     6     2     9
 C     1.15560   0.04000  -2.23570     8     9     3    19
 C     2.39870   0.46030  -1.77610     9    11     8     7
 C     3.23210   1.44870   0.00720    10    12     6    11
 C     2.41960   1.65150  -1.06690    11    10     9    21
 C     2.41370   1.60760   1.05760    12    10    13    15
 C     2.40950   0.42550   1.77330    13    12    14    25
 C     1.16340   0.01580   2.24640    14    13    18    26
 C     1.21300   2.19740   0.68780    15    12    17    21
 C    -1.19830   2.18090   0.67770    16    35    17    22
 C     0.00760   1.94920   1.34670    17    15    16    18
 C     0.00360   0.79850   2.19500    18    33    14    17
 C    -0.00330   0.83970  -2.18370    19    38     8    20
 C    -0.00850   2.03580  -1.38800    20    22    21    19
 C     1.21360   2.25200  -0.73870    21    11    20    15
 C    -1.23260   2.25700  -0.74700    22    40    20    16
 C     2.67920  -1.61110   0.71110    23    25    24     2
 C     1.45490  -2.05850   1.14360    24    23    26    28
 C     3.27990  -0.44620   1.10560    25    23     6    13
 C     0.69970  -1.30400   2.05100    26    27    24    14
 C    -0.68860  -1.30480   2.05050    27    26    30    33
 C     0.70220  -2.45660   0.02060    28    29     1    24
 C    -0.68510  -2.45420   0.02280    29    28    30     4
 C    -1.44040  -2.04560   1.13230    30    31    27    29
 C    -2.65320  -1.58580   0.68050    31    41    30    34
 C    -2.38310   0.41800   1.76000    32    33    35    34
 C    -1.14980   0.01100   2.25350    33    32    18    27
 C    -3.26940  -0.42500   1.08980    34    31    36    32
 C    -2.40490   1.59280   1.01860    35    37    16    32
 C    -3.79340   0.24420   0.00150    36    37    34    42
 C    -3.26220   1.47910  -0.02630    37    36    40    35
 C    -1.16380   0.04300  -2.22940    38    39     5    19
 C    -2.41070   0.45520  -1.76460    39    40    38    42
 C    -2.44700   1.66780  -1.08910    40    37    39    22
 C    -2.66320  -1.58720  -0.69010    41    42    31     4
 C    -3.26670  -0.43000  -1.09210    42    41    36    39
