    90
C90-C1-20                                                                       
 C     3.05870  -2.98370  -0.85960     1     2     7    55
 C     3.34450  -2.82360   0.47650     2     3     1     4
 C     4.04580  -1.71460   0.84730     3     2    10    54
 C     2.37150  -3.27590   1.34370     4     2     5     8
 C     1.23310  -3.94020   0.92330     5    20     4     6
 C     0.95050  -4.16220  -0.41970     6     5     7    24
 C     1.91330  -3.62290  -1.28260     7    61     1     6
 C     2.05250  -2.56590   2.49600     8    13     9     4
 C     2.68480  -1.39670   2.85200     9     8    10    17
 C     3.76120  -1.03660   2.03320    10    11     3     9
 C     4.12300   0.24940   1.84200    11    10    12    28
 C     3.40610   1.23020   2.44220    12    11    29    18
 C     0.73970  -2.80630   2.77400    13     8    15    20
 C    -1.39800  -2.00790   3.15340    14    38    15    21
 C    -0.05320  -1.85560   3.41440    15    14    13    16
 C     0.48730  -0.56350   3.71920    16    17    15    40
 C     1.88260  -0.36970   3.45760    17    18    16     9
 C     2.30170   0.93680   3.20590    18    12    42    17
 C    -1.09010  -3.78290   1.50540    19    20    21    22
 C     0.23580  -3.71130   1.83430    20    19     5    13
 C    -1.91460  -2.95460   2.26380    21    83    19    14
 C    -1.46000  -4.05050   0.15520    22    25    19    24
 C    -0.68170  -3.62510  -2.07630    23    86    60    24
 C    -0.41340  -4.18680  -0.81110    24    23     6    22
 C    -2.67830  -3.47270  -0.25410    25    82    90    22
 C     4.34130   1.57570  -0.07220    26    28    45    27
 C     3.67940   2.60060   0.56960    27    29    31    26
 C     4.58130   0.41090   0.56180    28    26    54    11
 C     3.19520   2.41730   1.82240    29    27    12    30
 C     1.98300   2.92070   2.19610    30    29    33    42
 C     2.91320   3.29070  -0.31350    31    27    46    32
 C     1.69560   3.90630   0.02160    32    31    49    33
 C     1.19770   3.72400   1.37040    33    30    36    32
 C    -2.10080   2.52480   2.51560    34    75    43    35
 C    -0.75070   2.85710   2.65620    35    34    41    36
 C    -0.18410   3.74400   1.64750    36    37    33    35
 C    -1.03030   4.08530   0.57840    37    76    48    36
 C    -2.26970  -0.95420   3.20790    38    14    39    78
 C    -1.81730   0.33080   3.46760    39    43    38    40
 C    -0.43220   0.57970   3.69870    40    39    41    16
 C     0.07200   1.88900   3.32160    41    42    35    40
 C     1.42610   2.00550   3.09850    42    41    18    30
 C    -2.62410   1.30560   2.90340    43    34    39    80
 C     2.14040   2.63670  -2.42090    44    46    47    50
 C     3.93550   1.55640  -1.38430    45    46    26    52
 C     3.12280   2.64700  -1.52310    46    44    45    31
 C     0.99760   3.33380  -2.21530    47    44    64    49
 C    -0.56780   4.14430  -0.72710    48    49    37    62
 C     0.74840   4.01600  -1.02020    49    48    47    32
 C     1.88430   1.52340  -3.18370    50    44    65    51
 C     2.64250   0.35550  -3.06520    51    50    57    52
 C     3.73600   0.36220  -2.11440    52    45    53    51
 C     4.07340  -0.84570  -1.44070    53    55    54    52
 C     4.47870  -0.77710  -0.09400    54    28     3    53
 C     3.37480  -1.98040  -1.78590    55    53    58     1
 C     0.52410  -0.77760  -3.75150    56    59    67    57
 C     1.93050  -0.82390  -3.38580    57    58    51    56
 C     2.38290  -1.98770  -2.74310    58    61    55    57
 C    -0.23390  -1.91400  -3.46850    59    73    60    56
 C     0.28370  -3.01820  -2.82970    60    61    23    59
 C     1.55560  -3.03500  -2.46150    61    60    58     7
 C    -1.58330   3.64510  -1.54880    62    68    48    63
 C    -1.32990   2.81760  -2.65230    63    64    62    71
 C     0.00080   2.70130  -2.94760    64    63    65    47
 C     0.53790   1.56280  -3.51510    65    64    50    67
 C    -1.65360   0.50600  -3.49380    66    72    71    67
 C    -0.22950   0.43740  -3.78430    67    65    56    66
 C    -2.67010   3.45660  -0.77040    68    69    62    76
 C    -3.56130   2.49040  -1.07790    69    68    77    70
 C    -3.34200   1.63040  -2.13000    70    69    87    71
 C    -2.19790   1.72620  -2.94180    71    70    63    66
 C    -2.34650  -0.71970  -3.18010    72    73    88    66
 C    -1.58050  -1.88580  -3.19560    73    59    86    72
 C    -3.84870   2.05570   1.22040    74    80    75    77
 C    -2.89440   2.98760   1.49880    75    76    74    34
 C    -2.33780   3.72100   0.52710    76    75    37    68
 C    -4.20540   1.81290  -0.08120    77    84    69    74
 C    -3.35160  -1.25130   2.37590    78    83    79    38
 C    -4.08610  -0.27150   1.72950    79    80    78    85
 C    -3.73140   1.01700   2.08880    80    74    79    43
 C    -4.13530  -1.74350  -0.16390    81    82    85    89
 C    -3.49580  -2.72910   0.55510    82    83    25    81
 C    -3.10300  -2.46850   1.81360    83    82    21    78
 C    -4.47560   0.54940  -0.50080    84    77    85    87
 C    -4.49160  -0.52050   0.38230    85    81    84    79
 C    -1.84030  -2.97470  -2.37760    86    90    23    73
 C    -3.94710   0.43830  -1.80060    87    88    70    84
 C    -3.48610  -0.74720  -2.31000    88    87    89    72
 C    -3.67800  -1.85740  -1.47440    89    90    81    88
 C    -2.84580  -2.93250  -1.50800    90    86    89    25
