    90
C90-C2-6                                                                        
 C    -1.72530   2.44510   2.64170     1     6     2    51
 C    -2.50840   2.93190   1.62040     2     1     3    10
 C    -3.66710   2.18530   1.39870     3     4     2    50
 C    -4.23040   2.08970   0.15010     4     5    14     3
 C    -3.57060   2.66630  -0.88330     5     4    15    11
 C    -0.40150   2.71570   2.72960     6     1     8    67
 C     1.62980   3.26830   1.77900     7     8    19    68
 C     0.27510   3.46770   1.77700     8     7     6     9
 C    -0.41040   3.84220   0.58860     9     8    10    21
 C    -1.82790   3.59890   0.54840    10    11     2     9
 C    -2.41930   3.39360  -0.69770    11    23     5    10
 C    -4.68760   0.20970  -1.19440    12    13    28    14
 C    -3.97560   0.75770  -2.21560    13    15    12    34
 C    -4.83150   0.87170   0.00880    14    27     4    12
 C    -3.45980   2.00270  -2.07490    15    16    13     5
 C    -2.28220   2.31910  -2.64330    16    15    17    23
 C    -1.55220   1.40160  -3.39300    17    18    16    33
 C    -0.22440   1.67330  -3.46090    18    17    35    24
 C     2.40890   3.41510   0.65540    19     7    86    20
 C     1.81310   3.60780  -0.59460    20    19    89    21
 C     0.39190   3.84120  -0.63570    21    22    20     9
 C    -0.29350   3.46170  -1.82420    22    23    24    21
 C    -1.64540   3.26060  -1.82540    23    22    11    16
 C     0.39520   2.71050  -2.76560    24    90    22    18
 C    -4.43170  -1.12980   1.17440    25    27    41    26
 C    -4.32160  -1.80470  -0.03330    26    30    28    25
 C    -4.66110   0.20590   1.18660    27    25    14    50
 C    -4.40040  -1.12340  -1.20320    28    26    12    29
 C    -3.49460  -1.41070  -2.21500    29    34    28    32
 C    -3.42880  -2.81670   0.08670    30    26    42    31
 C    -2.55180  -3.22350  -0.93860    31    45    30    32
 C    -2.54900  -2.43420  -2.15080    32    29    38    31
 C    -1.98770   0.04460  -3.46850    33    34    17    37
 C    -3.22100  -0.21300  -2.85740    34    29    13    33
 C     0.72030   0.70860  -3.68970    35    18    80    36
 C     0.39110  -0.65280  -3.72630    36    35    84    37
 C    -1.00850  -1.00510  -3.55000    37    33    38    36
 C    -1.33040  -2.25410  -2.88360    38    39    32    37
 C    -0.23970  -3.00730  -2.47210    39    85    38    44
 C    -1.83200  -3.25150   1.74900    40    42    43    46
 C    -3.55030  -1.70400   2.05150    41    42    25    48
 C    -3.02610  -2.78510   1.41130    42    40    41    30
 C    -1.02880  -3.84530   0.84240    43    40    63    45
 C    -0.25260  -3.77970  -1.31590    44    45    64    39
 C    -1.35570  -3.82930  -0.52070    45    44    43    31
 C    -1.07360  -2.64460   2.72040    46    40    52    47
 C    -1.48170  -1.46720   3.34280    47    46    55    48
 C    -2.79200  -0.96810   2.99260    48    41    49    47
 C    -3.02810   0.42760   2.96120    49    51    50    48
 C    -3.93880   0.98250   2.06080    50    27    49     3
 C    -1.95060   1.21690   3.27350    51    49    56     1
 C     0.24070  -2.97820   2.47200    52    46    53    63
 C     1.32920  -2.21860   2.88230    53    52    61    54
 C     0.99830  -0.97110   3.54350    54    58    53    55
 C    -0.40170  -0.62160   3.72140    55    56    47    54
 C    -0.72380   0.73760   3.68290    56    67    51    55
 C     3.21270  -0.18030   2.83840    57    62    70    58
 C     1.97910   0.07870   3.45020    58    57    66    54
 C     3.43620  -2.81400  -0.07660    59    74    79    60
 C     2.55300  -3.21200   0.94830    60    65    59    61
 C     2.54900  -2.40660   2.15100    61    62    53    60
 C     3.49410  -1.38250   2.20690    62    57    75    61
 C     0.26350  -3.76220   1.32310    63    65    43    52
 C     1.03690  -3.85970  -0.83670    64    77    44    65
 C     1.36310  -3.82390   0.52320    65    63    64    60
 C     1.54220   1.43280   3.37200    66    67    68    58
 C     0.21760   1.69770   3.44870    67    66    56     6
 C     2.27220   2.33800   2.60620    68    71    66     7
 C     4.68000   0.22510   1.19230    69    70    75    72
 C     3.97200   0.79300   2.20390    70    71    69    57
 C     3.45660   2.03310   2.04390    71    68    70    86
 C     4.80540   0.88280  -0.01860    72    76    87    69
 C     4.42610  -1.13390  -1.16290    73    76    78    74
 C     4.33810  -1.80450   0.04430    74    75    59    73
 C     4.41480  -1.11410   1.20290    75    74    69    62
 C     4.63440   0.20460  -1.19110    76    73    72    81
 C     1.84190  -3.26920  -1.74790    77    79    64    85
 C     3.54520  -1.70850  -2.04350    78    79    73    83
 C     3.02960  -2.79280  -1.40160    79    77    78    59
 C     1.94290   1.20760  -3.28580    80    82    35    90
 C     3.91450   0.98270  -2.06460    81    76    88    82
 C     3.01060   0.40790  -2.96700    82    80    81    83
 C     2.78160  -0.98780  -2.99270    83    82    78    84
 C     1.47580  -1.49420  -3.34030    84    85    36    83
 C     1.07340  -2.67190  -2.71950    85    77    39    84
 C     3.56630   2.69670   0.85180    86    87    71    19
 C     4.21460   2.11000  -0.18060    87    86    88    72
 C     3.65820   2.20320  -1.42810    88    87    89    81
 C     2.49830   2.93870  -1.66660    89    90    88    20
 C     1.71610   2.44490  -2.68000    90    24    89    80
