    90
C90-C2v-36                                                                      
 C    -3.18770   1.57880  -2.24860     1    59     2     4
 C    -4.03900   1.45540  -1.12450     2     3    43     1
 C    -4.50050   0.26140  -0.68020     3     6     2    25
 C    -2.76750   0.34920  -2.88450     4     5     8     1
 C    -3.34280  -0.82810  -2.40320     5     6    11     4
 C    -4.21460  -0.87510  -1.33910     6     3    26     5
 C    -0.68410   1.38250  -3.43930     7    58    13     8
 C    -1.45100   0.22560  -3.45360     8     7     4     9
 C    -0.72900  -1.02680  -3.48990     9    10     8    15
 C    -1.41490  -2.16750  -2.96340    10    11    12     9
 C    -2.68700  -2.04060  -2.42990    11     5    10    27
 C    -0.68760  -3.21540  -2.42080    12    18    10    29
 C     0.70370   1.38120  -3.44290    13    65     7    14
 C     1.46530   0.21940  -3.45550    14    13    21    15
 C     0.73670  -1.02930  -3.48950    15    17    14     9
 C     2.68680  -2.04820  -2.42870    16    22    17    83
 C     1.41030  -2.17570  -2.96200    17    18    16    15
 C     0.68040  -3.22110  -2.42160    18    12    17    85
 C     4.06580   1.43890  -1.14080    19    88    70    20
 C     3.20950   1.57400  -2.26230    20    67    19    21
 C     2.78470   0.33850  -2.88960    21    22    14    20
 C     3.35420  -0.84310  -2.40730    22    89    16    21
 C    -4.21200  -0.86020   1.35900    23    25    24    33
 C    -4.04960  -2.03780   0.69030    24    41    23    26
 C    -4.50300   0.27420   0.69620    25    23    32     3
 C    -4.04470  -2.04950  -0.68010    26    27     6    24
 C    -3.14290  -2.81370  -1.34680    27    26    28    11
 C    -2.32390  -3.71320  -0.69720    28    27    29    40
 C    -1.12220  -3.96570  -1.32530    29    77    28    12
 C    -3.19160   1.59710   2.24220    30    45    32    31
 C    -2.77370   0.37060   2.88990    31    33    38    30
 C    -4.04470   1.47090   1.12030    32    25    43    30
 C    -3.34130  -0.81690   2.42260    33    34    23    31
 C    -2.68830  -2.02530   2.44920    34    33    36    41
 C    -0.68690  -3.19360   2.44080    35    71    36    42
 C    -1.41280  -2.14440   2.98350    36    35    34    37
 C    -0.73350  -0.99580   3.50250    37    36    38    52
 C    -1.45580   0.25680   3.45700    38    39    31    37
 C    -0.68620   1.40880   3.43270    39    44    38    54
 C    -2.32780  -3.70410   0.72970    40    41    42    28
 C    -3.14590  -2.79930   1.36810    41    24    40    34
 C    -1.12170  -3.95210   1.35060    42    78    40    35
 C    -3.88760   2.25340  -0.00710    43    47    32     2
 C    -1.10560   2.59350   2.85280    44    48    45    39
 C    -2.32570   2.70680   2.21660    45    44    46    30
 C    -2.30230   3.55590   1.09510    46    47    50    45
 C    -3.03300   3.26230  -0.02030    47    43    46    60
 C     0.01430   3.30690   2.47790    48    44    55    49
 C     0.00980   4.14440   1.37630    49    50    51    48
 C    -1.16370   4.20870   0.67230    50    49    46    61
 C     1.18790   4.19580   0.67140    51    49    57    62
 C     0.73260  -1.00370   3.49800    52    72    53    37
 C     1.46530   0.24430   3.45330    53    54    75    52
 C     0.70000   1.40380   3.43150    54    39    55    53
 C     1.13290   2.58810   2.85470    55    56    48    54
 C     2.34920   2.69650   2.21410    56    55    57    76
 C     2.32480   3.54070   1.09150    57    68    51    56
 C    -1.10620   2.57370  -2.87210    58    64    59     7
 C    -2.32710   2.69310  -2.23670    59    58    60     1
 C    -2.29860   3.56230  -1.13170    60    47    61    59
 C    -1.16180   4.21740  -0.72120    61    63    60    50
 C     1.19760   4.19910  -0.72190    62    63    66    51
 C     0.01550   4.14320  -1.42150    63    61    62    64
 C     0.01900   3.28950  -2.51160    64    65    58    63
 C     1.13850   2.57210  -2.88390    65    67    64    13
 C     2.33440   3.54750  -1.13990    66    68    62    67
 C     2.35690   2.68950  -2.24870    67    65    66    20
 C     3.05800   3.23930  -0.02030    68    70    57    66
 C     4.06410   1.44710   1.12500    69    87    70    76
 C     3.90370   2.22090  -0.00790    70    68    69    19
 C     0.68200  -3.19690   2.44030    71    35    72    80
 C     1.41240  -2.14940   2.97640    72    71    73    52
 C     2.68510  -2.02880   2.44070    73    74    72    81
 C     3.35280  -0.82230   2.41180    74    90    73    75
 C     2.78300   0.36250   2.88830    75    74    53    76
 C     3.20870   1.58290   2.24610    76    56    69    75
 C    -0.00260  -4.36050  -0.66140    77    78    29    85
 C     0.00280  -4.34980   0.69590    78    77    80    42
 C     2.32090  -3.71220   0.71990    79    80    81    84
 C     1.12490  -3.95870   1.35690    80    78    79    71
 C     3.14000  -2.80000   1.35570    81    86    79    73
 C     4.05190  -2.05850  -0.67730    82    83    89    86
 C     3.14140  -2.82000  -1.34420    83    82    84    16
 C     2.31700  -3.72330  -0.70630    84    85    83    79
 C     1.12010  -3.97610  -1.33260    85    77    84    18
 C     4.05100  -2.04340   0.69280    86    81    90    82
 C     4.52750   0.25590   0.67980    87    90    69    88
 C     4.53250   0.24670  -0.69850    88    89    19    87
 C     4.23590  -0.88750  -1.35050    89    88    82    22
 C     4.23350  -0.87000   1.35210    90    87    86    74
