    90
C90-C1-26                                                                       
 C    -3.75300  -2.48180   0.02770     1     2     5    51
 C    -4.17450  -1.44140   0.85150     2    35     9     1
 C    -1.79880  -3.50960  -1.63520     3     4     6    50
 C    -2.63620  -2.58900  -2.09750     4     3     5    20
 C    -3.64390  -2.09960  -1.31790     5     4     7     1
 C    -0.51730  -3.55260  -2.08880     6     3    57    18
 C    -3.92390  -0.83940  -1.78080     7     5     8    11
 C    -4.40820   0.14690  -0.95050     8    10     7     9
 C    -4.50950  -0.17810   0.39150     9     8     2    27
 C    -4.02420   1.42720  -1.26230    10     8    13    25
 C    -3.00780  -0.55870  -2.80840    11    12    20     7
 C    -2.57190   0.70290  -3.10000    12    11    13    23
 C    -3.17550   1.70460  -2.32040    13    15    10    12
 C    -1.32040   3.08240  -2.51710    14    15    47    24
 C    -2.52990   2.85340  -2.01370    15    14    13    31
 C     2.12310  -3.16690  -1.90330    16    85    56    17
 C     1.43580  -2.38420  -2.88050    17    18    16    88
 C     0.03980  -2.59300  -2.98130    18    17     6    19
 C    -0.82850  -1.54910  -3.41440    19    20    18    22
 C    -2.17440  -1.63480  -2.98190    20    11     4    19
 C     1.13650  -0.01440  -3.58710    21    88    89    22
 C    -0.30780  -0.23840  -3.71140    22    19    23    21
 C    -1.23230   0.87420  -3.56550    23    24    12    22
 C    -0.67880   2.11990  -3.28750    24    90    14    23
 C    -3.77930   2.38230  -0.27600    25    26    31    10
 C    -3.81380   2.03830   1.06040    26    27    28    25
 C    -4.17310   0.74760   1.37110    27    26    34     9
 C    -2.84780   2.62220   1.84900    28    26    29    32
 C    -1.93640   3.55030   1.37850    29    44    28    30
 C    -1.89160   3.93100   0.03920    30    29    31    48
 C    -2.84670   3.28580  -0.75250    31    15    25    30
 C    -2.22790   1.90330   2.86920    32    37    33    28
 C    -2.51640   0.58820   3.16350    33    32    34    41
 C    -3.56720   0.05220   2.40580    34    35    27    33
 C    -3.61910  -1.26860   2.09610    35    36    34     2
 C    -2.65140  -2.08730   2.53940    36    35    52    42
 C    -0.97270   2.40850   3.04360    37    32    39    44
 C     1.32010   2.09360   3.12830    38    62    39    45
 C     0.08140   1.62470   3.51010    39    38    37    40
 C    -0.10870   0.22520   3.75870    40    39    41    64
 C    -1.44920  -0.26380   3.59760    41    42    33    40
 C    -1.58400  -1.61200   3.26890    42    66    36    41
 C     0.43270   3.84850   1.67980    43    44    45    46
 C    -0.80130   3.46890   2.14200    44    29    43    37
 C     1.50040   3.18030   2.26980    45    77    43    38
 C     0.54940   4.27330   0.32360    46    49    43    48
 C    -0.40790   3.82210  -1.82970    47    14    80    48
 C    -0.61870   4.25220  -0.50050    48    47    30    46
 C     1.79470   3.98550  -0.26670    49    76    84    46
 C    -1.86950  -3.93760  -0.32640    50    55     3    51
 C    -2.80040  -3.39350   0.53720    51    50    52     1
 C    -2.25740  -3.16380   1.80390    52    36    53    51
 C    -0.94060  -3.43570   2.14680    53    54    52    66
 C    -0.04800  -4.05010   1.30040    54    53    55    60
 C    -0.58920  -4.28770   0.02530    55    57    50    54
 C     1.48320  -3.96380  -0.98320    56    57    16    61
 C     0.19310  -4.15490  -1.08890    57    56     6    55
 C     2.97020  -2.13740   2.11770    58    69    67    59
 C     1.76340  -2.79020   2.39810    59    58    65    60
 C     1.32380  -3.77270   1.42960    60    54    61    59
 C     2.09420  -3.85950   0.24880    61    70    56    60
 C     2.40340   1.26430   3.00880    62    38    63    72
 C     2.29110  -0.10240   3.22270    63    62    67    64
 C     1.03220  -0.67830   3.57760    64    63    65    40
 C     0.80390  -2.05620   3.17860    65    66    59    64
 C    -0.51810  -2.45580   3.04790    66    42    65    53
 C     3.22830  -0.83950   2.51040    67    58    63    74
 C     4.36490  -1.21170   0.63780    68    69    74    71
 C     3.71420  -2.35660   0.97830    69    70    68    58
 C     3.22470  -3.16570   0.02560    70    69    61    85
 C     4.44370  -0.83020  -0.67630    71    78    86    68
 C     3.28270   1.83800   2.08700    72    77    73    62
 C     4.11740   1.08370   1.28290    73    74    72    79
 C     4.12050  -0.26450   1.58780    74    68    73    67
 C     3.57340   2.60650  -0.48510    75    76    79    83
 C     2.84870   3.39670   0.37780    76    77    49    75
 C     2.69700   2.99280   1.65090    77    76    45    72
 C     4.33470   0.46880  -1.03400    78    71    79    81
 C     4.25640   1.47590  -0.08300    79    75    78    73
 C     0.80330   3.42190  -2.30500    80    84    47    90
 C     3.59400   0.49860  -2.22710    81    82    87    78
 C     2.83100   1.57180  -2.58210    82    81    83    89
 C     2.91830   2.66890  -1.71040    83    84    75    82
 C     1.89580   3.54660  -1.56580    84    80    83    49
 C     3.26120  -2.75700  -1.28870    85    86    16    70
 C     3.82080  -1.59340  -1.62610    86    85    71    87
 C     3.21910  -0.78330  -2.56090    87    86    81    88
 C     1.99490  -1.10450  -3.19820    88    87    17    21
 C     1.61310   1.33240  -3.29810    89    90    82    21
 C     0.65740   2.33460  -3.16040    90    24    80    89
