    90
C90-C1-38                                                                       
 C     2.65040  -3.57530  -0.31650     1     2     5    53
 C     3.51960  -2.73610   0.37150     2    40     9     1
 C     0.24380  -3.92950  -1.64010     3     4     6    52
 C     1.25160  -3.31870  -2.25400     4     3     5    21
 C     2.45960  -3.17100  -1.64480     5     4     7     1
 C    -1.03700  -3.57280  -1.92050     6     3    59    19
 C     3.04580  -2.05760  -2.19290     7     8     5    11
 C     3.94990  -1.28940  -1.50620     8    10     7     9
 C     4.17470  -1.65450  -0.18410     9     2    28     8
 C     3.96740   0.04720  -1.79800    10     8    26    14
 C     2.11450  -1.48900  -3.07640    11    21    13     7
 C     0.80450   0.46130  -3.65480    12    13    16    24
 C     2.06810  -0.13560  -3.34210    13    11    14    12
 C     3.07220   0.60880  -2.71100    14    35    10    13
 C    -0.58080   2.36080  -3.14150    15    25    16    86
 C     0.70200   1.87130  -3.35670    16    15    34    12
 C    -3.39110  -2.36860  -1.42400    17    88    58    18
 C    -2.63690  -1.88760  -2.53860    18    19    22    17
 C    -1.38980  -2.50930  -2.79620    19    18     6    20
 C    -0.30100  -1.77810  -3.38450    20    21    19    24
 C     0.98730  -2.26620  -3.10680    21    11     4    20
 C    -2.80780  -0.52150  -2.88980    22    18    90    23
 C    -1.70380   0.21370  -3.44530    23    25    24    22
 C    -0.41610  -0.37580  -3.68420    24    23    20    12
 C    -1.71130   1.59300  -3.18930    25    15    84    23
 C     4.26110   1.00530  -0.84830    26    30    10    27
 C     4.42920   0.64810   0.48490    27    28    29    26
 C     4.35340  -0.68620   0.79290    28    27     9    39
 C     3.88490   1.52140   1.40680    29    33    27    37
 C     3.63410   2.17120  -1.22270    30    26    32    35
 C     2.10030   3.83580  -0.62520    31    32    36    48
 C     3.20780   3.09450  -0.28900    32    31    30    33
 C     3.32620   2.72400   1.04260    33    29    50    32
 C     1.75270   2.59460  -2.70070    34    35    36    16
 C     2.90360   1.92150  -2.38250    35    14    34    30
 C     1.41830   3.62870  -1.81580    36    87    31    34
 C     3.19740   1.06070   2.52900    37    42    38    29
 C     3.03850  -0.27680   2.81000    38    37    39    46
 C     3.71160  -1.14150   1.93740    39    40    28    38
 C     3.25380  -2.39260   1.67930    40    41    39     2
 C     2.14190  -2.84040   2.28560    41    40    54    47
 C     2.23160   1.97810   2.84310    42    37    50    44
 C    -0.02690   2.46310   3.12170    43    64    44    51
 C     1.01970   1.60460   3.42570    44    43    42    45
 C     0.74670   0.22440   3.69940    45    44    46    66
 C     1.80440  -0.70430   3.40550    46    47    38    45
 C     1.41840  -2.01490   3.12460    47    68    41    46
 C     1.15540   4.24560   0.30540    48    77    49    31
 C     1.26580   3.81890   1.61590    49    50    51    48
 C     2.34360   3.04660   1.95430    50    49    33    42
 C     0.07590   3.53540   2.23860    51    49    80    43
 C     0.36890  -4.34100  -0.33050    52    57     3    53
 C     1.54190  -4.12550   0.36550    53    52    54     1
 C     1.30360  -3.71950   1.67870    54    41    55    53
 C     0.03720  -3.52310   2.20650    55    56    54    68
 C    -1.12290  -3.81280   1.52750    56    55    62    57
 C    -0.89050  -4.24480   0.21010    57    59    52    56
 C    -2.88620  -3.28780  -0.53100    58    59    17    63
 C    -1.74980  -3.89060  -0.79430    59    58    57     6
 C    -3.15510  -0.96220   2.57380    60    71    69    61
 C    -2.21700  -1.98470   2.75420    61    60    67    62
 C    -2.29000  -3.08500   1.81550    62    56    63    61
 C    -3.22420  -2.94530   0.76420    63    72    58    62
 C    -1.32390   2.04730   3.11630    64    43    65    74
 C    -1.66580   0.73760   3.41820    65    69    64    66
 C    -0.64760  -0.23050   3.68530    66    65    67    45
 C    -0.96620  -1.60840   3.35460    67    68    61    66
 C     0.10900  -2.44320   3.08870    68    47    67    55
 C    -2.88110   0.35720   2.87840    69    60    65    76
 C    -4.35050   0.34310   1.22780    70    76    71    73
 C    -4.09860  -0.95050   1.57230    71    72    70    60
 C    -4.09090  -1.92140   0.63940    72    71    63    88
 C    -4.54770   0.66360  -0.08280    73    70    81    89
 C    -2.04540   2.85500   2.22200    74    80    75    64
 C    -3.18320   2.41680   1.58910    75    74    76    82
 C    -3.63540   1.17870   2.02310    76    70    75    69
 C    -0.07460   4.37880  -0.30560    77    87    48    79
 C    -2.39420   3.61790  -0.39890    78    85    79    82
 C    -1.29710   4.14310   0.33170    79    80    77    78
 C    -1.15950   3.72840   1.64890    80    74    51    79
 C    -4.04690   1.84010  -0.55740    81    73    83    82
 C    -3.38300   2.80220   0.22500    82    81    78    75
 C    -3.62610   1.53840  -1.84230    83    84    90    81
 C    -2.64110   2.22480  -2.38370    84    83    85    25
 C    -2.08040   3.28660  -1.74240    85    86    84    78
 C    -0.84490   3.42830  -2.28950    86    87    85    15
 C     0.13450   4.01150  -1.61240    87    86    36    77
 C    -4.22920  -1.58410  -0.68700    88    89    17    72
 C    -4.42920  -0.31190  -1.04210    89    88    90    73
 C    -3.76280   0.20210  -2.11460    90    89    83    22
