    90
C90-C1-29                                                                       
 C     2.48030  -3.41850   0.80700     1     2    54     4
 C     3.59070  -2.59840   0.52650     2     3    41     1
 C     4.01500  -1.62450   1.37410     3     6     2    15
 C     1.73570  -3.15090   2.02060     4     5     9     1
 C     2.16870  -2.06870   2.78400     5     6     4    25
 C     3.29310  -1.35810   2.48960     6    16     3     5
 C    -1.53070  -4.07130   0.73300     7    10     8    60
 C    -0.20520  -4.12050   1.02930     8     7    53     9
 C     0.36320  -3.45150   2.12660     9     8     4    12
 C    -2.37660  -3.37750   1.51410    10     7    88    11
 C    -1.88040  -2.62360   2.54330    11    10    26    12
 C    -0.53430  -2.59950   2.89390    12    11    24     9
 C     4.41810   0.67370   1.10050    13    15    31    14
 C     3.71090   0.92230   2.25480    14    16    23    13
 C     4.55290  -0.58870   0.64560    15    13    40     3
 C     3.12410  -0.08390   2.91670    16    14     6    17
 C     1.87710   0.05730   3.45860    17    16    25    21
 C    -1.04330   2.25010   2.99350    18    19    20    34
 C    -2.38940   2.00410   2.65330    19    80    29    18
 C    -0.27230   1.14700   3.50960    20    21    18    28
 C     1.15230   1.26020   3.42060    21    17    20    22
 C     1.79170   2.36170   2.74000    22    33    23    21
 C     3.06080   2.10440   2.15110    23    14    32    22
 C    -0.06510  -1.37760   3.47800    24    25    12    28
 C     1.29090  -1.19670   3.43780    25    24    17     5
 C    -2.71940  -1.54250   2.67660    26    11    27    83
 C    -2.25860  -0.33130   3.17980    27    29    26    28
 C    -0.89830  -0.19020   3.58160    28    27    24    20
 C    -2.97340   0.75820   2.73340    29    27    19    85
 C     2.65140   3.45690   0.31170    30    32    35    36
 C     4.20280   1.69280   0.22290    31    13    32    38
 C     3.45700   2.61300   0.92840    32    30    31    23
 C     0.99610   3.34710   2.12140    33    22    34    35
 C    -0.40770   3.33300   2.27610    34    33    52    18
 C     1.49930   3.88320   0.90350    35    48    30    33
 C     2.49920   3.39610  -1.05430    36    30    49    37
 C     3.11880   2.39030  -1.78870    37    36    45    38
 C     4.02480   1.48800  -1.16920    38    31    37    39
 C     4.10930   0.13540  -1.63490    39    40    42    38
 C     4.42110  -0.86950  -0.68560    40    15    41    39
 C     3.89850  -2.14240  -0.74590    41    44    40     2
 C     3.23640  -0.28010  -2.68040    42    46    43    39
 C     2.76220  -1.58770  -2.71520    43    44    42    63
 C     3.10190  -2.50100  -1.75480    44    41    55    43
 C     2.28740   1.91540  -2.80100    45    46    37    51
 C     2.33390   0.61660  -3.21540    46    45    42    61
 C    -0.60730   4.31240   0.04120    47    48    74    52
 C     0.69360   4.26230  -0.12260    48    47    35    49
 C     1.24180   3.89060  -1.32150    49    48    36    50
 C     0.41510   3.41240  -2.33810    50    51    49    75
 C     0.99420   2.38580  -3.04420    51    50    67    45
 C    -1.17630   3.93940   1.24390    52    81    47    34
 C     0.46760  -4.25430  -0.17850    53    54     8    58
 C     1.77070  -3.89180  -0.32290    54    53    55     1
 C     2.08320  -3.37700  -1.58360    55    44    56    54
 C     1.10220  -3.07900  -2.52040    56    57    63    55
 C    -0.21570  -3.39170  -2.36340    57    56    58    65
 C    -0.49280  -4.10720  -1.19090    58    60    57    53
 C    -2.71070  -3.35600  -1.17250    59    60    87    66
 C    -1.70890  -4.06860  -0.62160    60    58    59     7
 C     1.06070   0.26350  -3.67810    61    67    62    46
 C     0.57230  -1.02710  -3.65140    62    61    63    64
 C     1.50060  -1.94420  -3.18160    63    56    62    43
 C    -0.82780  -1.25290  -3.50360    64    62    65    69
 C    -1.21630  -2.50570  -2.89340    65    66    57    64
 C    -2.46140  -2.55740  -2.26690    66    72    59    65
 C     0.23230   1.35210  -3.56470    67    61    51    68
 C    -1.15150   1.24870  -3.42710    68    67    78    69
 C    -1.71890  -0.09140  -3.40740    69    71    68    64
 C    -3.57160   0.82940  -2.11160    70    77    71    89
 C    -2.97200  -0.25800  -2.73460    71    72    70    69
 C    -3.30670  -1.47980  -2.17280    72    66    71    86
 C    -2.61880   3.63080  -0.40620    73    76    74    81
 C    -1.46010   3.99240  -0.99740    74    73    47    75
 C    -0.98400   3.42020  -2.20030    75    50    74    78
 C    -3.41730   2.72650  -1.00000    76    73    82    77
 C    -3.00110   2.08550  -2.14370    77    76    70    78
 C    -1.78240   2.35710  -2.76480    78    77    68    75
 C    -3.99320   1.84900   1.11230    79    85    80    82
 C    -3.08520   2.68930   1.68070    80    81    79    19
 C    -2.45160   3.60930   0.95740    81    80    52    73
 C    -4.16170   1.86840  -0.25060    82    89    76    79
 C    -3.72270  -1.64470   1.69530    83    88    84    26
 C    -4.30870  -0.52140   1.14510    84    85    83    90
 C    -3.99040   0.66590   1.76710    85    79    84    29
 C    -4.05360  -1.61250  -0.98670    86    87    90    72
 C    -3.63790  -2.75430  -0.37770    87    86    59    88
 C    -3.46890  -2.76750   0.97500    88    83    10    87
 C    -4.32330   0.70360  -0.92760    89    82    90    70
 C    -4.48430  -0.50300  -0.28190    90    89    86    84
