    90
C90-C2-19                                                                       
 C     2.52980  -2.99770  -1.63520     1     6     2    54
 C     3.25350  -1.89140  -2.01270     2     1     3    10
 C     4.13240  -1.40050  -1.03220     3     4    53     2
 C     4.49330  -0.09490  -0.98860     4     5     3    14
 C     3.99780   0.77000  -1.90040     5     4    15    11
 C     1.30130  -3.28980  -2.15740     6     1    67     8
 C    -0.71940  -2.49630  -3.01560     7    19     8    68
 C     0.66510  -2.42160  -3.05120     8     7     6     9
 C     1.29060  -1.20000  -3.42830     9     8    10    21
 C     2.63600  -0.97660  -2.93640    10    11     2     9
 C     3.07060   0.34440  -2.82850    11    23     5    10
 C     4.29680   1.55570   0.67340    12    14    26    13
 C     3.87320   2.46940  -0.26900    13    15    29    12
 C     4.63120   0.29550   0.31700    14    12    36     4
 C     3.71290   2.05350  -1.55360    15    16     5    13
 C     2.64290   2.47560  -2.27030    16    15    17    23
 C     1.73730   3.40440  -1.76180    17    18    16    28
 C     0.48590   3.31160  -2.30390    18    17    48    24
 C    -1.53660  -1.43250  -3.32480    19     7    20    85
 C    -1.02780  -0.18540  -3.66850    20    19    89    21
 C     0.42180  -0.05780  -3.74020    21    22    20     9
 C     0.95960   1.24770  -3.53520    22    23    24    21
 C     2.25060   1.41390  -3.09700    23    22    11    16
 C     0.10880   2.28250  -3.18990    24    90    22    18
 C     1.69750   3.06100   2.22630    25    27    30    32
 C     3.59130   1.77660   1.82600    26    27    12    34
 C     2.83980   2.89430   1.58250    27    25    26    29
 C     1.85250   3.84800  -0.41200    28    29    17    31
 C     2.95220   3.31420   0.27980    29    13    27    28
 C     0.63630   3.70950   1.65470    30    45    25    31
 C     0.63900   4.12630   0.30720    31    30    49    28
 C     1.24190   2.10750   3.10720    32    38    25    33
 C     1.89610   0.89580   3.33670    33    32    42    34
 C     3.16550   0.72300   2.67240    34    35    26    33
 C     3.59000  -0.57440   2.29940    35    37    36    34
 C     4.32050  -0.76360   1.10980    36    14    53    35
 C     2.76080  -1.62450   2.63550    37    35    51    43
 C    -0.11040   2.25870   3.18270    38    32    40    45
 C    -2.24600   1.39200   3.07710    39    40    59    46
 C    -0.95440   1.21620   3.52030    40    39    38    41
 C    -0.41420  -0.08750   3.72040    41    40    42    61
 C     1.03460  -0.21120   3.64260    42    43    33    41
 C     1.54530  -1.45420   3.28940    43    63    42    37
 C    -1.73640   3.38690   1.76430    44    45    46    47
 C    -0.48960   3.29410   2.30840    45    44    30    38
 C    -2.64980   2.45950   2.26190    46    80    44    39
 C    -1.84850   3.83220   0.41510    47    50    44    49
 C    -0.64530   3.72230  -1.65520    48    82    18    49
 C    -0.64080   4.12280  -0.30830    49    48    31    47
 C    -2.95220   3.29240  -0.27490    50    79    84    47
 C     2.66340  -2.77710   1.87170    51    55    37    52
 C     3.30240  -2.89700   0.64590    52    53    54    51
 C     4.10960  -1.86410   0.28560    53    52    36     3
 C     2.57390  -3.52420  -0.34050    54    58    52     1
 C     1.43110  -3.33690   2.10030    55    51    57    63
 C    -0.58760  -4.05530   1.20080    56    57    65    64
 C     0.77950  -4.08350   1.14670    57    56    55    58
 C     1.37160  -4.13350  -0.10500    58    54    67    57
 C    -3.06880   0.31830   2.82070    59    39    73    60
 C    -2.62820  -1.00380   2.92170    60    59    76    61
 C    -1.28030  -1.22810   3.40530    61    62    60    41
 C    -0.64680  -2.44540   3.02400    62    63    64    61
 C     0.73300  -2.52160   2.98730    63    43    62    55
 C    -1.29630  -3.29970   2.12630    64    77    56    62
 C    -1.35460  -4.12670   0.05450    65    69    56    66
 C    -0.76190  -4.07970  -1.19920    66    67    68    65
 C     0.60090  -4.06670  -1.24270    67    66    58     6
 C    -1.41800  -3.32240  -2.13770    68    72    66     7
 C    -2.56020  -3.52110   0.30540    69    65    71    77
 C    -4.08170  -1.85260  -0.30190    70    71    86    75
 C    -3.27570  -2.88280  -0.68590    71    70    69    72
 C    -2.64510  -2.75980  -1.91310    72    68    85    71
 C    -4.00250   0.74980   1.89970    73    74    80    59
 C    -4.48940  -0.10880   0.97650    74    73    75    81
 C    -4.12230  -1.41190   1.02480    75    74    70    76
 C    -3.24400  -1.91770   1.99830    76    77    75    60
 C    -2.52720  -3.01730   1.60830    77    64    76    69
 C    -4.29930   1.55510  -0.67170    78    81    83    79
 C    -3.88620   2.46090   0.27730    79    80    50    78
 C    -3.72830   2.04160   1.55520    80    79    46    73
 C    -4.62340   0.28770  -0.33040    81    78    86    74
 C    -1.69960   3.07430  -2.23100    82    84    48    90
 C    -3.59350   1.77400  -1.83050    83    84    78    88
 C    -2.84020   2.88700  -1.58750    84    82    83    50
 C    -2.75450  -1.61100  -2.67570    85    87    72    19
 C    -4.30500  -0.75750  -1.13760    86    81    70    87
 C    -3.58170  -0.56580  -2.33150    87    85    86    88
 C    -3.16220   0.73470  -2.69360    88    87    83    89
 C    -1.89380   0.91950  -3.35650    89    90    20    88
 C    -1.24170   2.12920  -3.12090    90    24    82    89
