    90
C90-C1-30                                                                       
 C     1.20330   3.19930  -2.35200     1     2     6    61
 C     1.98970   2.19820  -2.85130     2     1     3    10
 C     3.15430   1.98500  -2.10310     3     4     2    58
 C     3.78050   0.79070  -2.10820     4     3     5    14
 C     3.24450  -0.23560  -2.81100     5     4    15    11
 C    -0.15370   3.21650  -2.56580     6     1    66     8
 C    -2.12480   2.02350  -2.85170     7    24     8    67
 C    -0.80140   2.17220  -3.23280     8     7     6     9
 C    -0.05440   1.03870  -3.69250     9    10     8    26
 C     1.36840   1.10100  -3.53840    10    11     9     2
 C     2.05370  -0.10590  -3.47030    11     5    28    10
 C     4.47980  -0.67670  -0.42870    12    14    33    13
 C     3.99270  -1.73010  -1.17160    13    15    17    12
 C     4.37070   0.58070  -0.89710    14    12     4    32
 C     3.35280  -1.50240  -2.33890    15    13     5    16
 C     2.23530  -2.20060  -2.69020    16    15    19    28
 C     3.50670  -2.67830  -0.32980    17    13    34    18
 C     2.39810  -3.49160  -0.64910    18    17    41    19
 C     1.72630  -3.24250  -1.91340    19    16    22    18
 C    -1.84570  -2.61940  -2.62660    20    85    29    21
 C    -0.48070  -2.65420  -2.92570    21    20    27    22
 C     0.35000  -3.50970  -2.07960    22    23    19    21
 C    -0.29160  -4.12920  -0.99210    23    86    40    22
 C    -2.76300   0.81300  -2.92320    24     7    25    88
 C    -2.09830  -0.32920  -3.35000    25    29    24    26
 C    -0.72230  -0.26930  -3.72550    26    25    27     9
 C     0.06220  -1.47970  -3.54090    27    28    21    26
 C     1.42630  -1.33880  -3.43560    28    27    11    16
 C    -2.63010  -1.49890  -2.82410    29    20    25    90
 C     3.82130   1.45270   1.29920    30    32    43    31
 C     3.91900   0.09710   1.79370    31    33    37    30
 C     4.06500   1.63450  -0.07920    32    14    58    30
 C     4.27290  -0.92840   0.88920    33    12    34    31
 C     3.74740  -2.20080   0.94760    34    35    33    17
 C     2.90720  -2.54100   1.92350    35    34    39    36
 C     2.54780  -1.61820   2.86290    36    35    51    37
 C     3.03260  -0.31140   2.82740    37    38    36    31
 C     2.15050   0.59070   3.35270    38    37    42    53
 C     1.88910  -3.41150   1.71240    39    35    82    41
 C     0.31060  -4.26170   0.25090    40    41    23    80
 C     1.61710  -3.93460   0.44370    41    40    39    18
 C     2.11890   1.89500   2.92640    42    45    38    43
 C     2.90740   2.38940   1.86720    43    42    30    44
 C     2.29560   3.43440   1.08500    44    47    57    43
 C     0.86250   2.34940   3.22300    45    46    42    54
 C     0.34150   3.35550   2.53020    46    45    47    49
 C     1.02810   3.90370   1.48570    47    46    59    44
 C    -2.97510   2.20780   2.02940    48    78    50    64
 C    -1.00980   3.40200   2.32730    49    46    62    50
 C    -1.85690   2.39500   2.81120    50    48    49    56
 C     1.27010  -1.95870   3.29670    51    82    52    36
 C     0.34540  -1.03170   3.75540    52    53    51    74
 C     0.86440   0.24850   3.81220    53    54    52    38
 C     0.06450   1.34330   3.71570    54    53    45    56
 C    -1.90570  -0.03600   3.42590    55    77    56    74
 C    -1.31500   1.27570   3.51480    56    54    50    55
 C     2.52010   3.47790  -0.31500    57    58    61    44
 C     3.38460   2.56750  -0.84750    58    57    32     3
 C     0.05240   4.35540   0.63250    59    60    47    62
 C     0.26790   4.30640  -0.69480    60    59    61    66
 C     1.46720   3.86150  -1.15130    61    60     1    57
 C    -1.20190   4.06480   1.12540    62    59    63    49
 C    -2.26980   3.77820   0.29500    63    62    64    65
 C    -3.18720   2.87780   0.82270    64    69    63    48
 C    -2.03030   3.71640  -1.10340    65    66    67    63
 C    -0.74450   3.95460  -1.54330    66    60    65     6
 C    -2.72520   2.77490  -1.83620    67    70    65     7
 C    -4.21110   0.88880   0.72040    68    69    72    78
 C    -3.92220   2.04000   0.03880    69    70    64    68
 C    -3.69680   1.98600  -1.29880    70    69    88    67
 C    -4.09530  -1.42710   0.81850    71    87    72    76
 C    -4.41980  -0.31110   0.06330    72    68    71    89
 C    -1.44020  -2.45440   2.89600    73    75    81    74
 C    -1.05720  -1.22580   3.54840    74    52    73    55
 C    -2.64360  -2.46190   2.18430    75    83    76    73
 C    -3.43690  -1.34070   2.05790    76    75    77    71
 C    -3.10620  -0.13640   2.65110    77    76    78    55
 C    -3.59040   0.97940   1.96950    78    48    77    68
 C    -1.85620  -3.98760   0.56850    79    80    83    86
 C    -0.68050  -4.07290   1.22250    80    79    40    81
 C    -0.44130  -3.36490   2.40800    81    82    80    73
 C     0.87840  -3.08550   2.61470    82    81    51    39
 C    -2.86060  -3.23260   1.06300    83    79    87    75
 C    -3.49410  -2.63880  -1.12430    84    90    85    87
 C    -2.41890  -3.32720  -1.60320    85    86    84    20
 C    -1.63030  -4.03180  -0.77990    86    85    23    79
 C    -3.71220  -2.59030   0.22220    87    83    71    84
 C    -3.77630   0.79800  -1.95770    88    70    89    24
 C    -4.19700  -0.36380  -1.34720    89    90    88    72
 C    -3.66840  -1.52050  -1.87770    90    84    89    29
