    90
C90-C2v-16                                                                      
 C    -3.89810  -1.84540   1.34730     1     2     4    14
 C    -4.42340  -0.80820   0.68250     2     1     3    13
 C    -4.21960   0.45560   1.14020     3     2    57    10
 C    -3.09900  -1.60690   2.42520     4     1    16     5
 C    -2.77250  -0.30370   2.90130     5    10     4    18
 C    -3.04500   2.89070   1.14890     6    59    56     9
 C    -0.70100   3.30600   2.40540     7    82    60     8
 C    -1.46760   2.22620   2.87020     8     7    20     9
 C    -2.76650   2.04480   2.25790     9    10     6     8
 C    -3.39890   0.78750   2.25660    10     9     5     3
 C    -3.90340  -1.83970  -1.35110    11    13    22    12
 C    -3.43900  -2.94670  -0.67430    12    14    28    11
 C    -4.42610  -0.79890  -0.69000    13    11    35     2
 C    -3.43030  -2.95230   0.67480    14    12    17     1
 C    -1.06430  -2.50060   3.00600    15    16    24    19
 C    -2.23370  -2.66280   2.43710    16    15     4    17
 C    -2.36250  -3.48050   1.33000    17    14    16    26
 C    -1.46190  -0.13230   3.47000    18    19     5    20
 C    -0.67630  -1.28280   3.53540    19    90    15    18
 C    -0.74630   1.11790   3.43900    20     8    18    85
 C    -1.06850  -2.48440  -3.01100    21    23    29    31
 C    -3.10300  -1.59470  -2.42650    22    11    23    33
 C    -2.23770  -2.64830  -2.44200    23    21    22    28
 C     0.00380  -3.21630   2.56840    24    79    15    25
 C     0.00100  -4.01670   1.39070    25    26    52    24
 C    -1.24260  -4.08820   0.70590    26    17    25    27
 C    -1.23990  -4.08360  -0.72780    27    28    30    26
 C    -2.36570  -3.46890  -1.33760    28    12    23    27
 C    -0.00030  -3.20070  -2.57550    29    41    21    30
 C     0.00660  -4.01170  -1.40590    30    51    27    29
 C    -0.68730  -1.26250  -3.53630    31    42    21    32
 C    -1.46790  -0.10870  -3.46620    32    31    36    33
 C    -2.77630  -0.28760  -2.89530    33    34    22    32
 C    -3.40090   0.79730  -2.23420    34    38    33    35
 C    -4.22010   0.46790  -1.11690    35    13    57    34
 C    -0.75410   1.13820  -3.42240    36    37    32    46
 C    -1.47170   2.24110  -2.84470    37    39    36    38
 C    -2.76390   2.05710  -2.22560    38    34    55    37
 C    -0.70270   3.31360  -2.37290    39    48    53    37
 C     2.23310  -2.63680  -2.43780    40    41    43    49
 C     1.06320  -2.47790  -3.00800    41    40    29    42
 C     0.67580  -1.26000  -3.53510    42    31    41    45
 C     3.10540  -1.58410  -2.41790    43    72    40    44
 C     2.76040  -0.28280  -2.89230    44    66    43    45
 C     1.45270  -0.10600  -3.46460    45    42    46    44
 C     0.73650   1.13950  -3.42220    46    47    45    36
 C     1.45240   2.24310  -2.84500    47    48    46    64
 C     0.68170   3.31410  -2.37320    48    39    63    47
 C     2.37230  -3.45580  -1.33430    49    77    40    51
 C     2.36460  -3.45340   1.33260    50    76    81    52
 C     1.25030  -4.07570  -0.72250    51    49    30    52
 C     1.24830  -4.07530   0.70850    52    50    25    51
 C    -1.09710   4.14510  -1.33420    53    54    58    39
 C    -2.21600   3.85400  -0.66560    54    53    55    59
 C    -3.04020   2.88640  -1.10330    55    54    56    38
 C    -3.67870   2.41370   0.01960    56    57    55     6
 C    -4.24250   1.24470   0.01360    57    56    35     3
 C    -0.01010   4.60210  -0.66840    58    63    53    61
 C    -2.21840   3.86050   0.71640    59    60     6    54
 C    -1.09010   4.14690   1.36990    60    59    61     7
 C    -0.00100   4.60050   0.71460    61    71    60    58
 C     2.19410   3.85820  -0.66420    62    63    65    70
 C     1.07520   4.14540  -1.33470    63    62    58    48
 C     2.74430   2.06040  -2.22550    64    66    65    47
 C     3.01560   2.88820  -1.10330    65    62    68    64
 C     3.38300   0.80260  -2.23330    66    64    44    74
 C     4.21430   1.24460   0.00760    67    68    74    86
 C     3.64550   2.41540   0.02290    68    67    65    69
 C     3.02790   2.89800   1.15350    69    70    68    83
 C     2.20150   3.86820   0.71980    70    71    69    62
 C     1.07810   4.14690   1.38490    71    70    61    82
 C     3.91830  -1.83620  -1.34820    72    73    43    77
 C     4.42970  -0.79750  -0.67830    73    72    74    78
 C     4.20480   0.46320  -1.12120    74    73    67    66
 C     3.90740  -1.83650   1.35370    75    78    80    76
 C     3.44350  -2.94130   0.66870    76    77    50    75
 C     3.44870  -2.94410  -0.67840    77    76    49    72
 C     4.42820  -0.79030   0.69630    78    75    86    73
 C     1.06890  -2.50010   3.01170    79    81    24    90
 C     3.10950  -1.59840   2.43440    80    81    75    88
 C     2.24230  -2.64700   2.44720    81    79    80    50
 C     0.68670   3.30850   2.41860    82    71     7    84
 C     2.75640   2.05270   2.26400    83    87    69    84
 C     1.45750   2.23190   2.87920    84    82    85    83
 C     0.74540   1.11760   3.44410    85    84    89    20
 C     4.21290   0.47050   1.14470    86    78    67    87
 C     3.39330   0.79480   2.26420    87    83    88    86
 C     2.77300  -0.29750   2.91540    88    87    80    89
 C     1.46280  -0.12880   3.48250    89    90    88    85
 C     0.68400  -1.28230   3.54470    90    19    79    89
