    90
C90-C1-11                                                                       
 C     2.58910   2.10490   2.45130     1     2     6    62
 C     2.84620   0.82340   2.85050     2     1     3     9
 C     3.84610   0.17940   2.10470     3     4    61     2
 C     3.86030  -1.16380   1.97150     4     3     5    21
 C     2.88990  -1.89140   2.56450     5     4    22    10
 C     1.36590   2.68440   2.66010     6     1    70     7
 C     0.25160   2.01110   3.22410     7     6    16     8
 C     0.43290   0.62960   3.58430     8     7     9    12
 C     1.75860   0.07640   3.42120     9    10     2     8
 C     1.85450  -1.30080   3.24260    10     5    14     9
 C    -2.01890   0.30230   3.26420    11    15    12    18
 C    -0.73080  -0.25610   3.55970    12    11     8    13
 C    -0.53240  -1.67960   3.27800    13    14    28    12
 C     0.75980  -2.13060   3.12490    14    13    10    23
 C    -3.00830  -0.57830   2.77490    15    27    84    11
 C    -1.03200   2.51370   2.86020    16    18     7    17
 C    -1.04770   3.57160   1.90420    17    69    88    16
 C    -2.17190   1.68300   2.90450    18    16    90    11
 C     3.82330  -2.58620   0.11350    19    21    32    20
 C     2.91140  -3.38680   0.76400    20    22    24    19
 C     4.32490  -1.49570   0.72790    21    19    41     4
 C     2.43170  -3.02540   1.97860    22    20     5    23
 C     1.12230  -3.20630   2.30570    23    22    26    14
 C     2.03440  -3.91130  -0.12970    24    20    33    25
 C     0.69350  -4.20530   0.16350    25    24    36    26
 C     0.20630  -3.84800   1.48140    26    23    29    25
 C    -2.77060  -1.90760   2.46540    27    86    15    28
 C    -1.52640  -2.49480   2.64380    28    27    13    29
 C    -1.14690  -3.54500   1.70470    29    26    30    28
 C    -2.02210  -3.74510   0.62420    30    87    35    29
 C     1.50750  -3.16240  -2.27800    31    33    34    37
 C     3.48650  -2.51980  -1.21140    32    33    19    39
 C     2.43560  -3.38340  -1.34890    33    31    32    24
 C     0.22560  -3.55690  -2.09880    34    31    56    36
 C    -1.54200  -3.93950  -0.66090    35    36    30    57
 C    -0.22110  -4.12700  -0.90330    36    35    34    25
 C     1.55430  -2.03440  -3.06010    37    31    49    38
 C     2.56830  -1.08390  -2.94250    38    37    44    39
 C     3.61190  -1.33440  -1.97050    39    32    40    38
 C     4.23120  -0.23370  -1.31390    40    42    41    39
 C     4.56840  -0.34260   0.05080    41    21    61    40
 C     3.86520   1.03910  -1.70740    42    40    45    59
 C     0.79950   0.51940  -3.65760    43    46    53    44
 C     2.17470   0.22660  -3.28970    44    45    38    43
 C     2.90380   1.25600  -2.68080    45    48    42    44
 C     0.33440   1.80630  -3.39600    46    47    55    43
 C     1.11840   2.76690  -2.81060    47    48    66    46
 C     2.37960   2.49300  -2.44620    48    47    45    65
 C     0.23980  -1.74840  -3.41020    49    56    53    37
 C    -3.59090  -0.89640  -2.16380    50    75    82    51
 C    -2.45890  -1.24450  -2.91220    51    50    58    52
 C    -1.62600  -0.18050  -3.41810    52    51    54    53
 C    -0.22540  -0.46810  -3.68680    53    49    43    52
 C    -2.00330   1.18340  -3.09350    54    55    76    52
 C    -0.97980   2.12290  -3.10890    55    46    54    71
 C    -0.57410  -2.72030  -2.86310    56    58    49    34
 C    -2.39230  -3.25130  -1.52530    57    80    35    58
 C    -1.89810  -2.51700  -2.60800    58    56    57    51
 C     3.82830   2.13960  -0.84150    59    65    60    42
 C     4.03150   1.96120   0.51560    60    61    62    59
 C     4.38420   0.71880   0.93380    61    60    41     3
 C     3.18430   2.69310   1.32420    62    63    60     1
 C     2.30930   3.63580   0.85170    63    70    62    64
 C     2.13390   3.88140  -0.51580    64    65    63    67
 C     2.91080   3.05410  -1.31670    65    48    59    64
 C     0.34970   3.64120  -2.10760    66    47    71    67
 C     0.82480   4.22250  -0.93150    67    68    66    64
 C    -0.18180   4.38040  -0.00020    68    73    67    69
 C     0.06400   4.08910   1.32680    69    70    17    68
 C     1.25870   3.68880   1.72060    70    69    63     6
 C    -0.97150   3.26930  -2.31690    71    72    66    55
 C    -1.98060   3.51020  -1.41400    72    71    79    73
 C    -1.50430   4.08210  -0.22220    73    88    68    72
 C    -4.58930   0.37510  -0.63690    74    77    81    75
 C    -3.90730   0.41320  -1.84910    75    50    74    76
 C    -3.12990   1.49750  -2.25790    76    75    54    79
 C    -4.39870   1.38830   0.22740    77    74    78    83
 C    -3.71090   2.49170  -0.12270    78    77    89    79
 C    -3.09040   2.64970  -1.38250    79    72    78    76
 C    -3.44500  -2.82180  -0.80020    80    57    82    87
 C    -4.66640  -0.90750  -0.19220    81    82    74    85
 C    -4.10290  -1.69120  -1.14600    82    80    81    50
 C    -4.11890   1.08900   1.55360    83    84    90    77
 C    -4.06280  -0.18420   1.96030    84    83    85    15
 C    -4.41250  -1.20150   1.13280    85    86    84    81
 C    -3.65360  -2.27010   1.46480    86    87    85    27
 C    -3.22490  -3.12480   0.52300    87    86    30    80
 C    -2.04520   3.70280   0.97630    88    89    73    17
 C    -3.11090   2.94340   1.03160    89    88    90    78
 C    -3.23820   2.00390   2.02110    90    83    89    18
