    90
C90-Cs-10                                                                       
 C    -1.16210   1.23540  -3.66320     1     6     2    53
 C    -1.94460   0.10060  -3.63400     2     1     3    10
 C    -3.16280   0.25960  -2.95930     3     4    52     2
 C    -3.75450  -0.75960  -2.27840     4     5     3    29
 C    -3.14880  -1.95960  -2.26690     5     4    14    11
 C     0.19120   1.17730  -3.76640     6     1     8    67
 C     2.20170   0.08260  -3.46110     7     8    26    68
 C     0.88440  -0.02310  -3.83950     8     7     6     9
 C     0.17490  -1.25140  -3.68800     9     8    10    25
 C    -1.26500  -1.16000  -3.61640    10    11     2     9
 C    -1.94230  -2.16120  -2.91840    11    20     5    10
 C    -3.21270  -2.71990   1.18240    12    30    18    13
 C    -3.85900  -2.31560   0.00590    13    14    12    28
 C    -3.21310  -2.74910  -1.15550    14     5    15    13
 C    -2.06630  -3.50620  -1.15280    15    17    14    20
 C    -0.13500  -4.04810   0.01160    16    17    24    36
 C    -1.48630  -3.90940   0.02000    17    16    15    18
 C    -2.06110  -3.47890   1.18660    18    17    12    38
 C     0.10130  -3.26110  -2.27080    19    20    24    25
 C    -1.27700  -3.15400  -2.25230    20    11    19    15
 C     3.80870  -2.21840  -0.69530    21    90    22    84
 C     2.78270  -2.80440  -1.44390    22    23    21    27
 C     1.90670  -3.53740  -0.68530    23    24    22    86
 C     0.64440  -3.79660  -1.10420    24    23    16    19
 C     0.89280  -2.34370  -3.02550    25    19    27     9
 C     2.91040  -0.97240  -2.93510    26     7    88    27
 C     2.27070  -2.17300  -2.62940    27    26    22    25
 C    -4.48340  -1.03850  -0.00110    28    29    32    13
 C    -4.42350  -0.28380  -1.17480    29     4    44    28
 C    -3.14740  -1.92880   2.29380    30    31    12    39
 C    -3.74650  -0.73010   2.28200    31    30    34    32
 C    -4.41130  -0.27220   1.16900    32    31    42    28
 C    -1.16190   1.27510   3.65500    33    82    35    47
 C    -3.15330   0.29610   2.95850    34    31    46    35
 C    -1.93610   0.13410   3.63900    35    33    34    41
 C     0.63890  -3.78510   1.13330    36    86    16    37
 C     0.09850  -3.23310   2.29700    37    38    36    78
 C    -1.27830  -3.11680   2.28150    38    39    37    18
 C    -1.94300  -2.12680   2.95020    39    38    30    41
 C     0.18410  -1.21700   3.70050    40    81    41    78
 C    -1.25560  -1.12540   3.63760    41    39    35    40
 C    -4.26240   1.10510   1.17070    42    32    43    46
 C    -4.18810   1.82120  -0.01680    43    44    42    45
 C    -4.27500   1.09380  -1.19290    44    43    29    52
 C    -3.30750   2.90210  -0.01120    45    49    50    43
 C    -3.50240   1.45880   2.27900    46    48    42    34
 C    -1.49840   2.43460   2.97110    47    48    60    33
 C    -2.65430   2.54130   2.25220    48    47    49    46
 C    -2.55810   3.26070   1.08770    49    48    45    62
 C    -2.56220   3.23800  -1.12480    50    51    45    54
 C    -2.65920   2.50930  -2.28660    51    53    52    50
 C    -3.51250   1.43420  -2.30270    52    51    44     3
 C    -1.49320   2.40310  -2.99120    53    51    57     1
 C    -1.35370   3.79230  -0.69770    54    62    56    50
 C     1.09650   3.70720  -0.74830    55    56    59    64
 C    -0.16980   3.71010  -1.41720    56    54    57    55
 C    -0.30960   3.00990  -2.61560    57    67    53    56
 C     3.30350   2.67620  -0.70090    58    65    72    59
 C     2.20420   3.10410  -1.44560    59    58    66    55
 C    -0.31340   3.04080   2.58010    60    74    47    61
 C    -0.16390   3.73740   1.37730    61    62    60    64
 C    -1.35190   3.81220   0.66800    62    54    61    49
 C     2.20980   3.12290   1.41330    63    65    76    64
 C     1.10230   3.71880   0.71640    64    61    63    55
 C     3.31120   2.68380   0.68010    65    58    70    63
 C     1.98430   2.37730  -2.66200    66    67    68    59
 C     0.72370   2.31810  -3.16070    67    66    57     6
 C     2.76340   1.26250  -2.94540    68    73    66     7
 C     3.83180   0.94700   2.18290    69    75    70    87
 C     4.15660   1.65980   1.07520    70    69    71    65
 C     4.67200   1.02100  -0.00990    71    70    72    89
 C     4.14790   1.64710  -1.10490    72    73    71    58
 C     3.83160   0.91340  -2.20350    73    68    72    88
 C     0.71670   2.33950   3.13040    74    60    76    82
 C     2.75950   1.28690   2.93120    75    69    76    80
 C     1.98260   2.40080   2.63040    76    74    75    63
 C     2.27490  -2.14890   2.62970    77    79    85    78
 C     0.89980  -2.31220   3.03950    78    37    77    40
 C     2.90350  -0.93410   2.92780    79    80    87    77
 C     2.20190   0.11770   3.46420    80    81    79    75
 C     0.88860   0.01630   3.84380    81    80    82    40
 C     0.18950   1.21020   3.76380    82    33    81    74
 C     4.42950  -1.05440   1.09830    83    87    84    89
 C     3.81270  -2.21470   0.70940    84    83    85    21
 C     2.78620  -2.79510   1.45290    85    86    84    77
 C     1.90820  -3.53530   0.71510    86    36    85    23
 C     3.94980  -0.42060   2.19140    87    83    69    79
 C     3.95680  -0.45120  -2.20550    88    90    73    26
 C     4.81690  -0.34760  -0.01040    89    90    83    71
 C     4.43390  -1.06870  -1.09930    90    88    89    21
