    90
C90-C2v-2                                                                       
 C     0.68350  -2.28000   3.00220     1    17    58     2
 C     1.48570  -1.17850   3.29090     2     1    12     3
 C     2.82230  -1.19660   2.74250     3     4    59     2
 C     3.51070   0.01290   2.45970     4     7     3     5
 C     4.47990   0.00520   1.39960     5    46     6     4
 C     4.70270   1.09770   0.57950     6     9    20     5
 C     2.81440   1.21960   2.72780     7     4     8    13
 C     3.15550   2.30270   1.87240     8    10     9     7
 C     4.01530   2.22470   0.81690     9     6     8    21
 C     2.23440   3.24590   1.52650    10    11     8    22
 C     1.06080   3.27700   2.09130    11    10    42    14
 C     0.74340   0.01520   3.57310    12     2    13    15
 C     1.47960   1.21240   3.27920    13    14    12     7
 C     0.67240   2.30680   2.99100    14    90    11    13
 C    -0.75400   0.01030   3.57600    15    16    89    12
 C    -1.48860  -1.19000   3.29310    16    17    15    84
 C    -0.68400  -2.28680   2.99820    17     1    64    16
 C     4.27770   1.36710  -1.70820    18    19    26    20
 C     3.54700   2.48800  -1.46460    19    21    18    35
 C     4.93560   0.67510  -0.71210    20    25     6    18
 C     3.47830   2.97660  -0.20920    21    22    19     9
 C     2.35770   3.59910   0.19720    22    21    10    41
 C     4.27300  -1.36500  -1.69400    23    47    24    25
 C     3.54690  -0.66590  -2.62350    24    26    23    33
 C     4.93820  -0.68020  -0.69430    25    20    46    23
 C     3.53840   0.67730  -2.63070    26    24    18    27
 C     2.38000   1.34770  -2.94090    27    26    35    31
 C    -1.21330   0.71510  -3.34150    28    29    30    55
 C    -2.40190   1.33810  -2.93860    29    72    40    28
 C    -0.00910   1.45500  -3.20210    30    31    28    39
 C     1.19710   0.71890  -3.34220    31    27    30    32
 C     1.20300  -0.73130  -3.33650    32    33    56    31
 C     2.38880  -1.34840  -2.92820    33    24    48    32
 C     1.21290   3.18580  -1.87340    34    35    39    41
 C     2.38970   2.52910  -2.22560    35    27    19    34
 C    -2.38180   3.58000   0.20480    36    76    81    37
 C    -1.23290   3.82310  -0.58620    37    43    36    38
 C    -1.24090   3.17420  -1.87160    38    40    39    37
 C    -0.01330   2.73350  -2.45180    39    38    34    30
 C    -2.41970   2.51630  -2.21540    40    29    77    38
 C     1.21010   3.83470  -0.59110    41    43    22    34
 C    -0.01520   3.76650   1.44960    42    79    11    43
 C    -0.01070   4.03030   0.06080    43    41    37    42
 C     4.03010  -2.21400   0.85210    44    46    59    45
 C     3.48790  -2.96290  -0.18380    45    54    47    44
 C     4.72190  -1.09530   0.60140    46    44    25     5
 C     3.55310  -2.48420  -1.44460    47    45    23    48
 C     2.39880  -2.52750  -2.20680    48    33    47    52
 C    -1.22530  -3.18200  -1.85200    49    50    51    62
 C    -2.40680  -2.52680  -2.19950    50    57    68    49
 C    -0.00120  -2.73630  -2.43900    51    49    52    56
 C     1.22350  -3.18500  -1.85410    52    48    51    53
 C     1.22650  -3.82480  -0.56730    53    61    54    52
 C     2.36590  -3.58110   0.23000    54    45    60    53
 C    -1.21350  -0.73610  -3.33880    55    57    56    28
 C    -0.00510  -1.46330  -3.19690    56    55    32    51
 C    -2.40110  -1.35030  -2.93320    57    73    50    55
 C     1.06840  -3.25940   2.10860    58    60    63     1
 C     3.16330  -2.29480   1.90360    59    60    44     3
 C     2.24810  -3.23210   1.55550    60    58    59    54
 C    -0.00260  -4.02390   0.07250    61    62    53    63
 C    -1.22950  -3.82620  -0.56720    62    61    66    49
 C    -0.00560  -3.74860   1.46160    63    64    58    61
 C    -1.07760  -3.26530   2.11210    64    65    63    17
 C    -2.25340  -3.23530   1.55380    65    64    83    66
 C    -2.37650  -3.58560   0.22230    66    69    65    62
 C    -4.27400  -1.37660  -1.69620    67    68    73    70
 C    -3.56620  -2.49960  -1.43830    68    69    67    50
 C    -3.50380  -2.97030  -0.17860    69    66    68    82
 C    -4.91970  -0.68590  -0.68690    70    74    85    67
 C    -4.29090   1.35710  -1.70850    71    77    72    74
 C    -3.56420   0.66220  -2.63720    72    73    71    29
 C    -3.56130  -0.67740  -2.63230    73    72    67    57
 C    -4.92600   0.67430  -0.69220    74    70    71    78
 C    -4.02950   2.21460   0.84290    75    78    80    76
 C    -3.50780   2.96260  -0.20330    76    77    36    75
 C    -3.57880   2.48400  -1.45650    77    76    71    40
 C    -4.71450   1.08490   0.60770    78    75    86    74
 C    -1.08480   3.28300   2.10450    79    81    42    90
 C    -3.16770   2.30410   1.89650    80    81    75    88
 C    -2.25740   3.24320   1.53930    81    79    80    36
 C    -4.03160  -2.22230   0.85840    82    85    83    69
 C    -3.17190  -2.29820   1.91470    83    65    82    84
 C    -2.83180  -1.19990   2.75760    84    87    83    16
 C    -4.71400  -1.09270   0.61540    85    82    86    70
 C    -4.49770  -0.00050   1.42990    86    78    85    87
 C    -3.52610   0.00860   2.48730    87    88    84    86
 C    -2.83030   1.21560   2.75520    88    87    80    89
 C    -1.49130   1.21120   3.29450    89    90    15    88
 C    -0.69170   2.31010   3.00200    90    14    79    89
