    90
C90-C1-9                                                                        
 C    -4.37550   0.97000   1.19330     1     5    16    52
 C    -1.23940   3.48090   1.70860     2     3    59     7
 C    -2.45050   2.85910   1.78640     3     2     4    57
 C    -3.17010   2.88160   0.58590     4     5     3     9
 C    -4.11500   1.96020   0.30030     5     4     1    17
 C     0.61460   4.02640   0.67210     6    10     7    13
 C    -0.72530   3.99480   0.52410     7     6     2     8
 C    -1.34250   3.79700  -0.70940     8     9     7    23
 C    -2.59160   3.27290  -0.62980     9     8    21     4
 C     1.40610   3.90180  -0.39320    10     6    89    22
 C     2.18370   1.88660   2.96300    11    72    12    61
 C     2.23160   2.91100   2.04300    12    11    13    88
 C     0.99330   3.51690   1.87760    13     6    12    59
 C    -4.75290  -0.49930  -0.62670    14    31    15    16
 C    -4.40060   0.48770  -1.50680    15    17    19    14
 C    -4.72620  -0.26270   0.72730    16    30     1    14
 C    -4.10350   1.72690  -1.05410    17    15     5    21
 C    -1.59640  -0.03160  -3.62530    18    20    27    34
 C    -3.63980  -0.02140  -2.52360    19    15    20    32
 C    -2.62810   0.72390  -3.13280    20    18    19    25
 C    -3.11040   2.48390  -1.62830    21     9    17    25
 C     0.84860   3.62000  -1.62940    22    82    10    23
 C    -0.52310   3.50620  -1.83970    23    22     8    24
 C    -0.96670   2.55840  -2.82920    24    23    25    26
 C    -2.30970   2.04630  -2.70230    25    21    20    24
 C     0.05760   1.75070  -3.46950    26    27    83    24
 C    -0.32970   0.45530  -3.82370    27    18    78    26
 C    -3.69240  -2.33380   1.07650    28    37    30    29
 C    -3.69040  -2.57720  -0.27570    29    31    45    28
 C    -4.16870  -1.16500   1.57540    30    28    16    51
 C    -4.19820  -1.64720  -1.12050    31    29    14    32
 C    -3.51410  -1.39450  -2.27710    32    31    33    19
 C    -2.37780  -2.11860  -2.63030    33    34    32    44
 C    -1.48010  -1.40670  -3.38900    34    46    33    18
 C    -0.64370  -2.73330   2.80350    35    53    36    41
 C    -1.94520  -2.34760   2.70400    36    35    37    50
 C    -2.60100  -2.91140   1.61210    37    28    36    38
 C    -1.91590  -3.57890   0.58900    38    40    45    37
 C     0.22100  -3.87790  -0.53470    39    40    43    48
 C    -0.57720  -3.86250   0.64930    40    38    41    39
 C     0.02100  -3.51680   1.85110    41    67    40    35
 C     2.36710  -3.17490  -1.44780    42    49    75    43
 C     1.64670  -3.71140  -0.37220    43    42    66    39
 C    -1.84540  -3.13940  -1.77210    44    45    33    48
 C    -2.56410  -3.29760  -0.58820    45    38    29    44
 C    -0.17310  -1.74620  -3.47410    46    34    47    78
 C     0.37730  -2.79200  -2.73470    47    49    46    48
 C    -0.43910  -3.45020  -1.77310    48    47    44    39
 C     1.73390  -2.67850  -2.56570    49    47    42    80
 C    -2.32800  -1.05020   3.18220    50    51    36    55
 C    -3.45770  -0.50820   2.56690    51    52    30    50
 C    -3.59130   0.84720   2.33250    52    51     1    57
 C     0.29350  -1.97320   3.42890    53    35    62    54
 C    -0.00680  -0.68250   3.87140    54    60    53    55
 C    -1.32320  -0.15340   3.69300    55    54    50    56
 C    -1.45950   1.28110   3.43630    56    58    57    55
 C    -2.59720   1.75570   2.69120    57    52     3    56
 C    -0.24940   2.04580   3.36720    58    61    59    56
 C    -0.18200   3.13500   2.51280    59     2    58    13
 C     1.11470   0.13720   3.83470    60    61    65    54
 C     0.99120   1.46670   3.57330    61    60    58    11
 C     1.53700  -2.36860   2.97400    62    64    53    67
 C     3.56090  -1.71600   2.01210    63    64    68    70
 C     2.61760  -1.53230   2.98790    64    62    65    63
 C     2.38120  -0.25590   3.42080    65    64    72    60
 C     2.22460  -3.44880   0.91870    66    67    68    43
 C     1.35450  -3.30800   1.97120    67    41    66    62
 C     3.39420  -2.67590   1.01170    68    76    63    66
 C     4.58890  -0.98960   0.20390    69    73    70    76
 C     4.26770  -0.63110   1.48730    70    69    63    71
 C     3.99860   0.70010   1.85760    71    72    70    87
 C     3.04760   0.82430   2.86810    72    11    65    71
 C     4.63500  -0.03070  -0.75910    73    69    90    77
 C     3.59990  -1.51860  -2.26410    74    77    80    75
 C     3.54930  -2.48090  -1.29980    75    76    74    42
 C     4.05790  -2.22370  -0.07740    76    75    68    69
 C     4.13910  -0.29690  -2.01560    77    74    85    73
 C     0.55100  -0.60760  -3.83270    78    79    27    46
 C     1.88940  -0.47920  -3.60740    79    78    80    86
 C     2.48880  -1.60210  -3.04200    80    74    79    49
 C     2.90740   2.80280  -1.47640    81    84    89    82
 C     1.79670   2.89250  -2.29930    82    22    81    83
 C     1.46180   1.90370  -3.22560    83    82    26    86
 C     3.76920   1.79510  -1.57670    84    81    85    90
 C     3.55530   0.82890  -2.52500    85    77    84    86
 C     2.39640   0.81330  -3.32810    86    85    79    83
 C     4.04510   1.71780   0.85930    87    90    71    88
 C     3.14430   2.82390   0.95660    88    89    12    87
 C     2.64690   3.35270  -0.25390    89    10    81    88
 C     4.37680   1.27930  -0.44180    90    73    84    87
