    90
C90-C2-23                                                                       
 C    -1.99900   2.54260   2.52300     1     6     2    54
 C    -2.65930   2.96250   1.38870     2     1     3    10
 C    -3.76120   2.16160   1.03940     3     4    53     2
 C    -4.14100   1.98780  -0.25310     4     5     3    14
 C    -3.41550   2.58610  -1.22350     5     4    15    11
 C    -0.68170   2.80380   2.73370     6     1     8    68
 C     1.44030   3.26990   1.94700     7     8    19    69
 C     0.09430   3.50330   1.81670     8     7     6     9
 C    -0.46120   3.85770   0.55170     9     8    10    21
 C    -1.87070   3.59990   0.37190    10    11     2     9
 C    -2.31760   3.36290  -0.92980    11    23     5    10
 C    -4.33880   0.06790  -1.59020    12    13    27    14
 C    -3.60800   0.66570  -2.57120    13    15    12    35
 C    -4.63060   0.72020  -0.42390    14    41    12     4
 C    -3.17230   1.93610  -2.39500    15    16    13     5
 C    -1.97300   2.31140  -2.87440    16    15    17    23
 C    -1.16040   1.44270  -3.59440    17    18    16    34
 C     0.15720   1.77440  -3.55590    18    17    36    24
 C     2.31970   3.38140   0.89440    19     7    86    20
 C     1.87080   3.60580  -0.41090    20    19    89    21
 C     0.45780   3.85560  -0.59220    21    22    20     9
 C    -0.09840   3.49550  -1.85690    22    23    24    21
 C    -1.44240   3.26070  -1.98560    23    22    11    16
 C     0.68840   2.79680  -2.76190    24    90    22    18
 C    -3.07540  -2.98850  -0.34770    25    42    26    31
 C    -4.01230  -1.97000  -0.37370    26    25    27    40
 C    -3.99830  -1.25390  -1.56670    27    12    26    28
 C    -3.04190  -1.46650  -2.57590    28    35    30    27
 C    -0.78780  -2.23720  -3.12860    29    30    33    38
 C    -2.06680  -2.44340  -2.51240    30    28    31    29
 C    -2.16340  -3.24190  -1.37320    31    49    30    25
 C     1.61810  -2.50260  -2.79700    32    39    78    33
 C     0.32400  -2.99290  -2.59620    33    32    48    29
 C    -1.54250   0.06400  -3.72470    34    35    17    38
 C    -2.78820  -0.25370  -3.18310    35    13    28    34
 C     1.13780   0.85050  -3.74920    36    18    82    37
 C     0.84300  -0.51320  -3.85370    37    39    36    38
 C    -0.51500  -0.94620  -3.76520    38    37    34    29
 C     1.88170  -1.30820  -3.40560    39    32    37    85
 C    -4.30280  -1.29340   0.84920    40    41    44    26
 C    -4.58370   0.07360   0.77700    41    14    53    40
 C    -2.45970  -3.37680   0.81160    42    43    45    25
 C    -2.68200  -2.70840   1.95290    43    42    44    62
 C    -3.57700  -1.68180   1.98020    44    43    51    40
 C    -1.23430  -3.88200   0.54800    45    42    49    46
 C    -0.17270  -3.75930   1.44650    46    47    45    61
 C     1.05250  -3.82820   0.84970    47    46    63    50
 C     0.15900  -3.78350  -1.41770    48    49    50    33
 C    -1.06380  -3.84880  -0.83210    49    48    31    45
 C     1.23010  -3.89040  -0.53030    50    79    47    48
 C    -3.09400  -0.78960   2.91550    51    52    44    55
 C    -3.33140   0.55690   2.78150    52    54    53    51
 C    -4.08150   0.97830   1.71400    53    52    41     3
 C    -2.30500   1.36210   3.19380    54    52    58     1
 C    -1.88290  -1.28280   3.41950    55    62    57    51
 C     0.51080  -0.92410   3.76900    56    57    60    65
 C    -0.84570  -0.47930   3.86010    57    55    58    56
 C    -1.13300   0.88230   3.75130    58    68    54    57
 C     2.77550  -0.22610   3.17380    59    71    66    60
 C     1.53000   0.09630   3.71910    60    59    67    56
 C    -0.33080  -2.97160   2.62620    61    62    46    65
 C    -1.62510  -2.48740   2.81810    62    55    43    61
 C     2.15730  -3.22600   1.39810    63    47    64    74
 C     2.06070  -2.41880   2.53190    64    66    63    65
 C     0.78420  -2.21990   3.14530    65    64    61    56
 C     3.03640  -1.44170   2.57430    66    59    64    76
 C     1.16340   1.47620   3.58060    67    68    69    60
 C    -0.15430   1.80050   3.55070    68    58    67     6
 C     1.97400   2.33170   2.84550    69    72    67     7
 C     4.32540   0.07990   1.58610    70    71    76    73
 C     3.60040   0.69410   2.56010    71    72    70    59
 C     3.17560   1.96250   2.36820    72    69    71    86
 C     4.61600   0.72800   0.41440    73    80    70    87
 C     3.06810  -2.99310   0.36530    74    79    75    63
 C     4.00600  -1.97470   0.38320    75    74    76    81
 C     3.99700  -1.24570   1.56670    76    70    75    66
 C     3.57610  -1.70770  -1.96520    77    78    85    81
 C     2.67520  -2.73570  -1.93370    78    79    77    32
 C     2.45540  -3.39420  -0.79010    79    78    50    74
 C     4.58290   0.06310  -0.77730    80    73    81    83
 C     4.30240  -1.30010  -0.83950    81    80    77    75
 C     2.30860   1.34810  -3.19940    82    84    36    90
 C     4.07790   0.96510  -1.72010    83    84    80    88
 C     3.32490   0.52820  -2.78530    84    82    85    83
 C     3.09120  -0.81760  -2.90710    85    84    77    39
 C     3.42060   2.61040   1.19570    86    87    72    19
 C     4.13500   2.00190   0.22570    87    86    88    73
 C     3.76480   2.16560  -1.06960    88    87    83    89
 C     2.66350   2.96300  -1.42620    89    90    88    20
 C     2.00310   2.53880  -2.55400    90    24    89    82
