    90
C90-C1-3                                                                        
 C    -4.14010   0.99320  -2.04120     1     2     9     3
 C    -3.48270   2.17540  -1.91320     2     4     1    18
 C    -4.81090   0.43470  -0.97310     3     8    53     1
 C    -3.52720   2.83380  -0.73880     4     2     5    54
 C    -2.44310   3.54830  -0.35610     5     4    60    24
 C    -3.99600  -1.67570  -1.64130     6    29     8     7
 C    -3.29520  -1.09770  -2.66680     7     9    16     6
 C    -4.70970  -0.91000  -0.76010     8     3     6    40
 C    -3.34700   0.22890  -2.84260     9     7     1    10
 C    -2.20210   0.89970  -3.19720    10     9    18    14
 C     1.43040   0.34610  -3.36850    11    12    13    36
 C     2.57190   1.04500  -2.94610    12    81    23    11
 C     0.19410   1.05790  -3.36850    13    14    11    22
 C    -0.98630   0.26910  -3.48970    14    10    13    15
 C    -0.94610  -1.17510  -3.35110    15    16    37    14
 C    -2.13450  -1.77430  -2.89340    16     7    30    15
 C    -1.15320   2.88960  -2.29720    17    18    22    24
 C    -2.28830   2.15370  -2.62330    18    10     2    17
 C     2.27220   3.63040  -0.05540    19    85    90    20
 C     1.18680   3.74310  -0.95830    20    26    19    21
 C     1.29230   2.95020  -2.15380    21    23    22    20
 C     0.11540   2.40890  -2.75570    22    21    17    13
 C     2.50370   2.28900  -2.34290    23    12    86    21
 C    -1.25040   3.69500  -1.10880    24    26     5    17
 C    -0.16450   3.96000   1.00140    25    59    88    26
 C    -0.07630   4.01210  -0.41240    26    24    20    25
 C    -2.05210  -3.72160   0.47650    27    41    28    33
 C    -3.22010  -3.09280   0.11410    28    27    29    39
 C    -3.26840  -2.74230  -1.22670    29     6    28    30
 C    -2.14080  -2.86280  -2.05010    30    32    16    29
 C     0.26710  -3.05190  -2.24800    31    32    35    37
 C    -0.97050  -3.46380  -1.68230    32    30    33    31
 C    -0.99060  -3.97090  -0.38610    33    48    27    32
 C     2.63910  -2.72750  -1.84550    34    35    38    77
 C     1.46580  -3.39360  -1.54040    35    34    47    31
 C     1.47310  -1.10040  -3.24010    36    38    37    11
 C     0.27860  -1.85220  -3.10520    37    36    15    31
 C     2.65400  -1.63110  -2.69250    38    82    34    36
 C    -3.83250  -2.21930   1.05900    39    40    43    28
 C    -4.56700  -1.14040   0.59420    40     8    39    52
 C    -1.46450  -3.54660   1.69500    41    42    44    27
 C    -1.95950  -2.62220   2.52650    42    41    43    62
 C    -3.11260  -1.96990   2.22970    43    42    50    39
 C    -0.14140  -3.75130   1.64580    44    41    45    48
 C     0.76360  -3.05570   2.43830    45    46    44    61
 C     2.02570  -3.02490   1.96010    46    45    68    49
 C     1.38810  -3.89630  -0.20100    47    48    49    35
 C     0.16050  -4.09000   0.33130    48    47    33    44
 C     2.37850  -3.51870   0.69800    49    78    47    46
 C    -3.01400  -0.71690   2.81470    50    51    43    63
 C    -3.70820   0.36560   2.32570    51    50    52    56
 C    -4.54610   0.11140   1.21680    52    53    40    51
 C    -4.75400   1.06240   0.24230    53    54     3    52
 C    -4.13570   2.25580   0.36330    54    53    57     4
 C    -1.75780   1.69920   3.08580    55    58    65    56
 C    -3.06760   1.61810   2.46910    56    51    57    55
 C    -3.35870   2.55610   1.44610    57    60    54    56
 C    -0.94460   2.73980   2.68460    58    75    59    55
 C    -1.28590   3.58100   1.64610    59    60    25    58
 C    -2.42390   3.44900   1.01940    60    59    57     5
 C     0.29130  -1.96760   3.22920    61    62    45    66
 C    -1.09580  -1.81770   3.23730    62    63    42    61
 C    -1.74390  -0.62280   3.40160    63    62    65    50
 C     0.43860   0.47380   3.59230    64    74    66    65
 C    -1.02830   0.55400   3.55120    65    63    55    64
 C     1.12080  -0.80680   3.44680    66    61    69    64
 C     3.86760  -2.02470   1.31190    67    70    78    68
 C     2.89550  -2.01300   2.28390    68    46    67    69
 C     2.48900  -0.84760   2.98170    69    68    72    66
 C     4.56570  -0.92520   0.99680    70    67    71    79
 C     4.26930   0.23630   1.67280    71    70    87    72
 C     3.21880   0.33720   2.64590    72    73    69    71
 C     2.54480   1.57950   2.74560    73    72    89    74
 C     1.19080   1.63710   3.21450    74    75    73    64
 C     0.41850   2.71570   2.75750    75    58    88    74
 C     4.40340  -1.46110  -1.29470    76    77    82    79
 C     3.70840  -2.57820  -0.97270    77    78    76    34
 C     3.50790  -2.90910   0.32440    78    49    77    67
 C     4.92630  -0.64880  -0.30900    79    83    76    70
 C     4.34580   1.24240  -1.58300    80    86    81    83
 C     3.72830   0.43780  -2.49760    81    82    80    12
 C     3.76420  -0.89400  -2.36440    82    81    76    38
 C     4.91520   0.69680  -0.44390    83    79    87    80
 C     3.88050   2.37740   0.84240    84    87    89    85
 C     3.42910   2.98850  -0.31760    85    86    19    84
 C     3.59990   2.37230  -1.49830    86    85    80    23
 C     4.58210   1.24450   0.77440    87    84    83    71
 C     0.86790   3.57260   1.77700    88    90    25    75
 C     2.95040   2.57690   1.81260    89    90    84    73
 C     2.06860   3.46670   1.29650    90    88    89    19
