    90
C90-C2-18                                                                       
 C     4.14940  -0.16960  -1.35970     1     2    14    58
 C     4.13880   1.12630  -0.91900     2     1     3     7
 C     4.24120   1.27820   0.47330     3     4    55     2
 C     3.70100   2.34450   1.11130     4     5     3    18
 C     3.08200   3.32080   0.41390     5     4     8    19
 C     2.55900   1.61230  -2.74660     6     9    12     7
 C     3.38640   2.08200  -1.65840     7     8     2     6
 C     2.91590   3.19820  -0.93850     8     5    11     7
 C     1.37200   2.30630  -2.98230     9    10    88     6
 C     0.99520   3.39550  -2.23100    10    11    26     9
 C     1.73190   3.82910  -1.20880    11    10     8    20
 C     2.52270   0.25430  -3.14090    12    14     6    13
 C     1.29370  -0.35790  -3.63650    13    15    87    12
 C     3.42070  -0.58940  -2.46760    14    60     1    12
 C     1.13670  -1.72510  -3.41210    15    61    84    13
 C     2.06460   2.47580   2.77770    16    18    30    17
 C     1.46200   3.49510   2.11100    17    19    16    21
 C     3.19430   1.91450   2.30060    18    16    29     4
 C     1.96570   3.93200   0.93420    19    17    20     5
 C     1.10330   4.26380  -0.05460    20    19    11    23
 C     0.11090   3.40970   2.31090    21    17    22    31
 C    -0.83260   3.82770   1.37000    22    21    39    23
 C    -0.29190   4.25710   0.09400    23    20    25    22
 C    -2.29810   3.47000  -0.93330    24    25    38    83
 C    -1.03410   3.95080  -1.06400    25    24    26    23
 C    -0.35590   3.48200  -2.19350    26    10    81    25
 C     2.51950  -0.25180   3.11920    27    29    43    28
 C     1.28830   0.35580   3.61120    28    30    34    27
 C     3.42160   0.58450   2.44120    29    18    55    27
 C     1.11780   1.71990   3.39230    30    16    31    28
 C    -0.11370   2.31460   3.15550    31    32    30    21
 C    -1.31110   1.63040   3.20970    32    31    40    33
 C    -1.23600   0.22150   3.55540    33    37    32    34
 C     0.07960  -0.38240   3.72120    34    35    28    33
 C     0.20110  -1.73450   3.42400    35    52    42    34
 C    -3.42600  -0.02490   2.50710    36    41    74    37
 C    -2.33670  -0.61960   3.15820    37    36    51    33
 C    -2.87870   3.20160   0.29690    38    78    24    39
 C    -2.11020   3.24100   1.47640    39    38    22    40
 C    -2.38010   2.17310   2.42960    40    41    32    39
 C    -3.43870   1.31260   2.14690    41    79    36    40
 C     1.37410  -2.30810   2.94990    42    45    35    43
 C     2.55900  -1.60850   2.72420    43    42    27    44
 C     3.39640  -2.06780   1.63680    44    47    54    43
 C     0.99800  -3.39490   2.20440    45    46    48    42
 C     1.74710  -3.81400   1.18600    46    45    47    64
 C     2.93030  -3.18260   0.90530    47    56    46    44
 C    -0.35180  -3.49600   2.16560    48    45    52    49
 C    -1.02980  -3.96100   1.03480    49    50    48    63
 C    -2.29580  -3.47610   0.92510    50    49    68    53
 C    -2.11420  -1.99450   2.85110    51    52    53    37
 C    -0.85870  -2.49710   2.98350    52    51    35    48
 C    -2.88040  -2.60160   1.84540    53    75    50    51
 C     4.15170  -1.11730   0.89950    54    55    58    44
 C     4.16210   0.17510   1.33750    55    54    29     3
 C     3.09240  -3.32120  -0.44780    56    57    47    59
 C     3.71580  -2.33830  -1.13390    57    56    58    60
 C     4.24790  -1.27010  -0.49210    58    57    54     1
 C     1.97700  -3.93620  -0.95820    59    64    62    56
 C     3.20790  -1.92350  -2.32820    60    61    14    57
 C     2.08070  -2.49100  -2.79880    61    60    62    15
 C     1.46480  -3.50200  -2.13660    62    59    61    65
 C    -0.27790  -4.26300  -0.11860    63    64    49    66
 C     1.11550  -4.26170   0.03360    64    59    46    63
 C     0.11750  -3.41720  -2.33470    65    62    66    84
 C    -0.82470  -3.83440  -1.39200    66    65    69    63
 C    -3.86700  -2.31710  -0.08690    67    70    68    75
 C    -2.86180  -3.20700  -0.31400    68    67    50    69
 C    -2.10070  -3.24700  -1.49690    69    68    66    72
 C    -4.19350  -1.41520  -1.03380    70    67    76    71
 C    -3.42060  -1.32390  -2.17320    71    70    89    72
 C    -2.36320  -2.18410  -2.45580    72    71    85    69
 C    -4.67240   0.17890   0.66000    73    74    79    76
 C    -4.22520  -0.70130   1.59510    74    75    73    36
 C    -3.89030  -1.95500   1.23720    75    53    74    67
 C    -4.64700  -0.18250  -0.67150    76    80    70    73
 C    -3.87060   1.94500  -1.23360    77    83    80    78
 C    -3.88980   2.31960   0.08820    78    79    38    77
 C    -4.23160   1.41620   1.02160    79    78    73    41
 C    -4.19340   0.68520  -1.60840    80    77    76    89
 C    -0.85480   2.48290  -3.01030    81    82    88    26
 C    -2.11360   1.97910  -2.87570    82    81    83    90
 C    -2.86580   2.59050  -1.86210    83    77    24    82
 C    -0.10190  -2.31920  -3.17860    84    85    15    65
 C    -1.29860  -1.63380  -3.24010    85    84    72    86
 C    -1.23030  -0.22640  -3.58970    86    90    85    87
 C     0.08330   0.37830  -3.75510    87    88    13    86
 C     0.20550   1.72910  -3.46290    88    81     9    87
 C    -3.41490   0.01280  -2.53840    89    71    80    90
 C    -2.33520   0.60760  -3.19020    90    89    82    86
