    86
C86-C2-3                                                                        
 C    -3.08970  -1.25680  -2.40820     1    56     2     4
 C    -4.05630  -0.42840  -1.77830     2     3    43     1
 C    -4.01110   0.94190  -1.85700     3     6     2    19
 C    -2.02780  -0.61730  -3.16620     4     5     8     1
 C    -2.03750   0.77610  -3.18190     5     6    12     4
 C    -2.99820   1.51710  -2.54460     6     3    20     5
 C    -0.59040  -2.47070  -2.76680     7    14    55     8
 C    -0.73850  -1.20660  -3.34210     8     7     4    10
 C     1.75490  -1.03350  -3.19660     9    13    16    10
 C     0.48270  -0.43280  -3.51220    10     9    11     8
 C     0.38710   1.01040  -3.40930    11    12    26    10
 C    -0.87680   1.53500  -3.23380    12    11     5    21
 C     2.83410  -0.18430  -2.90010    13    25    85     9
 C     0.63250  -2.97700  -2.38080    14    16     7    64
 C     2.86170  -2.61540  -1.70470    15    84    65    16
 C     1.82190  -2.33060  -2.60690    16    14    15     9
 C    -3.79470   2.60110  -0.20250    17    18    32    19
 C    -2.79840   3.18680  -0.92720    18    20    17    22
 C    -4.46380   1.49870  -0.68020    19    31    17     3
 C    -2.41280   2.66800  -2.11570    20    18    21     6
 C    -1.11940   2.70800  -2.51660    21    20    24    12
 C    -1.80780   3.65420  -0.09500    22    18    23    33
 C    -0.48390   3.81820  -0.48830    23    22    38    24
 C    -0.11070   3.35310  -1.81480    24    21    27    23
 C     2.69480   1.18770  -2.77810    25    80    13    26
 C     1.46830   1.82120  -2.94800    26    25    11    27
 C     1.20580   2.97730  -2.10710    27    28    24    26
 C     2.17140   3.28840  -1.15010    28    81    37    27
 C    -4.40050   0.53150   1.46490    29    44    30    31
 C    -3.67120   1.60540   1.91150    30    32    29    34
 C    -4.80250   0.46750   0.14030    31    19    43    29
 C    -3.38530   2.65020   1.10090    32    30    17    33
 C    -2.17370   3.27850   1.19640    33    32    22    36
 C    -2.69730   1.15560   2.78840    34    48    30    35
 C    -1.46750   1.78730   2.96920    35    34    50    36
 C    -1.20180   2.95500   2.14230    36    33    39    35
 C     1.80930   3.66200   0.14290    37    76    38    28
 C     0.48440   3.81590   0.53300    38    37    23    39
 C     0.11510   3.33040   1.85140    39    40    36    38
 C     1.12020   2.67070   2.54660    40    77    39    49
 C    -4.19870  -1.82540   0.10450    41    43    57    42
 C    -3.85600  -1.75780   1.44320    42    46    44    41
 C    -4.61940  -0.71470  -0.53980    43    41    31     2
 C    -3.89850  -0.56750   2.09300    44    42    29    48
 C    -0.63970  -2.99270   2.36090    45    47    54    59
 C    -2.85410  -2.63400   1.68880    46    42    58    47
 C    -1.82510  -2.34430   2.60440    47    45    46    52
 C    -2.84030  -0.21470   2.91800    48    34    44    52
 C     0.87930   1.49560   3.26030    49    50    70    40
 C    -0.38660   0.97330   3.42940    50    49    35    51
 C    -0.48330  -0.47010   3.52620    51    52    50    53
 C    -1.75960  -1.05650   3.21180    52    48    47    51
 C     0.73760  -1.24210   3.34250    53    54    71    51
 C     0.58790  -2.49770   2.74810    54    45    66    53
 C    -1.56970  -3.04870  -1.96790    55    56    61     7
 C    -2.80620  -2.47990  -1.75330    56    55    57     1
 C    -3.36050  -2.72400  -0.47940    57    41    58    56
 C    -2.60590  -3.33690   0.51360    58    60    57    46
 C    -0.43130  -3.79680   1.24830    59    62    60    45
 C    -1.39550  -3.89520   0.26450    60    58    61    59
 C    -0.90420  -3.81460  -1.02170    61    64    60    55
 C     0.90980  -3.81010   0.99250    62    59    63    66
 C     1.39730  -3.88710  -0.29910    63    65    64    62
 C     0.43330  -3.79720  -1.28060    64    61    63    14
 C     2.60630  -3.31720  -0.52710    65    63    68    15
 C     1.57420  -3.06500   1.95390    66    67    62    54
 C     2.80800  -2.49130   1.74710    67    66    68    74
 C     3.36840  -2.71770   0.46870    68    83    65    67
 C     2.99540   1.49430   2.56930    69    72    77    70
 C     2.04220   0.74120   3.20640    70    69    49    71
 C     2.03070  -0.65320   3.17630    71    70    53    74
 C     4.00700   0.92570   1.87190    72    69    73    78
 C     4.06140  -0.44390   1.78320    73    72    86    74
 C     3.09740  -1.27370   2.41030    74    67    73    71
 C     3.79050   2.60470   0.23080    75    76    81    78
 C     2.79990   3.18890   0.96410    76    77    75    37
 C     2.41880   2.65170   2.14450    77    76    40    69
 C     4.45420   1.49410   0.69790    78    82    75    72
 C     4.39660   0.54480  -1.45960    79    85    80    82
 C     3.67050   1.62350  -1.89910    80    81    79    25
 C     3.38990   2.65800  -1.07560    81    80    75    28
 C     4.79510   0.46990  -0.13180    82    78    86    79
 C     4.21530  -1.82620  -0.11700    83    86    68    84
 C     3.87250  -1.75070  -1.45630    84    85    15    83
 C     3.90540  -0.55750  -2.09140    85    84    79    13
 C     4.62400  -0.72040   0.54130    86    83    82    73
