    86
C86-C1-5                                                                        
 C     1.66740   0.23100  -3.50300     1     6     2    52
 C     2.37600   1.27910  -2.96320     2     1     3     9
 C     3.51710   0.88520  -2.25380     3     4     2    51
 C     3.99270   1.62050  -1.20010     4     5    18     3
 C     3.29420   2.70440  -0.80370     5     4    19    10
 C     0.33500   0.34760  -3.78720     6     1    58     7
 C    -0.45150   1.47820  -3.49830     7     6    14     8
 C     0.21870   2.56490  -2.82850     8     7    12     9
 C     1.64140   2.45460  -2.59290     9    10     2     8
 C     2.16870   3.12590  -1.47400    10     5    24     9
 C    -1.95620   3.07870  -1.81670    11    81    13    12
 C    -0.58100   3.36480  -1.92910    12    11    23     8
 C    -2.57470   2.03040  -2.47240    13    14    11    86
 C    -1.84160   1.20890  -3.30020    14    13    15     7
 C    -2.30840  -0.11100  -3.33170    15    57    84    14
 C     4.31680   1.00280   1.05690    16    29    17    18
 C     3.56790   2.07000   1.45190    17    19    16    35
 C     4.55130   0.77320  -0.28330    18    28     4    16
 C     3.10550   2.95170   0.53080    19    20    17     5
 C     1.92290   3.56550   0.70950    20    19    21    24
 C     1.12590   3.33810   1.83560    21    22    20    34
 C    -0.19020   3.61640   1.66160    22    21    36    25
 C     0.02030   3.91610  -0.75300    23    24    25    12
 C     1.35720   3.76190  -0.56100    24    23    10    20
 C    -0.73390   3.98330   0.42030    25    82    23    22
 C     4.20410  -1.52840   0.05170    26    28    42    27
 C     3.97680  -1.28670   1.40060    27    29    31    26
 C     4.45550  -0.48920  -0.78380    28    26    18    51
 C     3.99040  -0.02340   1.88410    29    27    16    30
 C     3.01100   0.37590   2.77920    30    29    35    33
 C     3.07080  -2.17840   1.86710    31    27    43    32
 C     2.10110  -1.86020   2.84770    32    46    31    33
 C     2.03370  -0.48190   3.29140    33    30    39    32
 C     1.50420   2.30080   2.75220    34    35    21    38
 C     2.74710   1.71190   2.51350    35    30    17    34
 C    -1.18160   2.99370   2.37860    36    22    75    37
 C    -0.90460   1.90420   3.22830    37    36    78    38
 C     0.47810   1.51100   3.39680    38    34    37    39
 C     0.77470   0.10660   3.65210    39    40    33    38
 C    -0.32140  -0.76440   3.68430    40    79    45    39
 C     1.64760  -3.67100   0.75840    41    43    44    47
 C     3.40620  -2.57260  -0.33080    42    43    26    49
 C     2.80490  -3.02870   0.81040    43    41    42    31
 C     0.73620  -3.56090   1.76250    44    41    64    46
 C    -0.24470  -2.08850   3.27440    45    46    40    62
 C     0.92510  -2.63460   2.80610    46    45    44    32
 C     1.00950  -3.87880  -0.44500    47    41    59    48
 C     1.49350  -3.33200  -1.64910    48    47    54    49
 C     2.75840  -2.63730  -1.59010    49    42    50    48
 C     2.99770  -1.50530  -2.42550    50    52    51    49
 C     3.82090  -0.46300  -2.00180    51    28    50     3
 C     1.95690  -1.12210  -3.24080    52    55    50     1
 C    -0.92510  -3.16740  -2.27490    53    56    61    54
 C     0.47270  -2.94950  -2.56580    54    55    48    53
 C     0.78250  -1.82050  -3.34650    55    58    52    54
 C    -1.84540  -2.25020  -2.83010    56    57    68    53
 C    -1.45430  -1.15420  -3.54020    57    58    56    15
 C    -0.17050  -0.93410  -3.77260    58    57    55     6
 C    -0.32730  -4.03510  -0.14000    59    47    61    64
 C    -2.54500  -3.31750  -0.45140    60    67    65    61
 C    -1.33190  -3.72290  -1.03390    61    59    60    53
 C    -1.50040  -2.46080   2.81080    62    71    45    63
 C    -1.65290  -3.36720   1.76840    63    64    65    62
 C    -0.49510  -3.86520   1.23800    64    63    44    59
 C    -2.70800  -3.13130   0.91430    65    63    74    60
 C    -4.04330  -1.65520  -0.12310    66    67    74    70
 C    -3.38430  -2.42030  -1.06120    67    68    60    66
 C    -3.03660  -1.88700  -2.24430    68    67    56    84
 C    -4.35130   0.51020   0.74370    69    83    72    70
 C    -4.40180  -0.32510  -0.38370    70    66    69    85
 C    -2.36600  -1.41080   2.99350    71    62    73    79
 C    -3.85710   0.07240   1.97810    72    73    77    69
 C    -3.47180  -1.22780   2.17700    73    72    74    71
 C    -3.61420  -2.10350   1.11820    74    73    65    66
 C    -2.34570   3.11940   1.66070    75    76    82    36
 C    -3.32800   2.20250   1.73670    76    75    77    83
 C    -3.15500   1.13290   2.56070    77    76    72    78
 C    -1.97270   0.95640   3.31110    78    79    77    37
 C    -1.63280  -0.35600   3.53000    79    78    40    71
 C    -3.70040   2.37180  -0.58620    80    83    86    81
 C    -2.68800   3.28920  -0.66610    81    82    80    11
 C    -2.04690   3.69270   0.45290    82    25    81    75
 C    -4.03840   1.83700   0.62270    83    80    69    76
 C    -3.34570  -0.57510  -2.53100    84    68    85    15
 C    -4.03680   0.23940  -1.64570    85    84    86    70
 C    -3.65770   1.57810  -1.69700    86    80    85    13
