    86
C86-C2-17                                                                       
 C    -2.37830   2.94970   1.84980     1     3    15     2
 C    -2.52220   3.42900   0.57990     2     4     6     1
 C    -3.06200   1.85050   2.23210     3     1    14    49
 C    -3.32750   2.78270  -0.29460     4     2    10    50
 C     0.46940   3.87520  -1.28430     5     7    85    23
 C    -1.33500   3.95870   0.18870     6     2     7    22
 C    -0.89240   3.85070  -1.13930     7     5     6     8
 C    -1.66750   3.09660  -2.06590     8    10     7     9
 C    -0.98140   2.29690  -3.05910     9    11    84     8
 C    -2.90420   2.60920  -1.58850    10     4    56     8
 C    -1.60920   1.10470  -3.44260    11    68    55     9
 C    -1.16720   1.09360   3.56600    12    14    26    13
 C    -0.43760   2.29100   3.16130    13    15    17    12
 C    -2.46760   0.93260   3.05090    14     3    39    12
 C    -1.10330   3.16740   2.28510    15     1    22    13
 C     1.66900   3.08850   2.06470    16    19    24    17
 C     0.98090   2.28710   3.05260    17    18    13    16
 C     1.60160   1.09150   3.43030    18    25    21    17
 C     2.90160   2.59600   1.58390    19    81    20    16
 C     3.43240   1.38940   1.96830    20    21    19    37
 C     2.79860   0.65930   2.88210    21    20    36    18
 C    -0.45600   3.87730   1.28240    22    24    15     6
 C     1.34700   3.96490  -0.18900    23    80    24     5
 C     0.90210   3.85360   1.13590    24    22    23    16
 C     0.91070  -0.04000   3.80870    25    18    28    26
 C    -0.48500  -0.11840   3.85850    26    25    12    27
 C    -1.07050  -1.40360   3.56100    27    30    38    26
 C     1.71200  -1.11720   3.46440    28    29    36    25
 C     1.15780  -2.29030   3.16590    29    28    30    32
 C    -0.19360  -2.45250   3.22780    30    29    40    27
 C     2.80060  -3.06950   0.12810    31    78    33    45
 C     1.70830  -3.08020   2.17910    32    29    43    33
 C     2.83440  -2.65540   1.45670    33    31    32    34
 C     3.46130  -1.41890   1.77020    34    36    33    35
 C     4.07930  -0.63360   0.74470    35    37    77    34
 C     2.84990  -0.70200   2.82740    36    21    28    34
 C     4.08810   0.76970   0.92200    37    74    20    35
 C    -2.34240  -1.46680   2.93610    38    39    42    27
 C    -3.01860  -0.29780   2.71020    39    38    14    48
 C    -0.47920  -3.43300   2.31310    40    41    30    43
 C    -1.67330  -3.42920   1.69020    41    40    61    42
 C    -2.60190  -2.47110   1.99300    42    41    46    38
 C     0.66190  -3.81460   1.64150    43    40    32    44
 C     0.62090  -4.19140   0.30620    44    43    45    60
 C     1.74650  -3.80110  -0.41830    45    70    44    31
 C    -3.36290  -2.26260   0.84220    46    47    57    42
 C    -4.00410  -1.06440   0.58700    47    46    48    52
 C    -3.87100  -0.10900   1.61170    48    49    39    47
 C    -3.91150   1.22520   1.36130    49    50    48     3
 C    -4.04280   1.67620   0.09030    50    49    53     4
 C    -3.47140  -1.40610  -1.78550    51    54    59    52
 C    -4.09410  -0.60970  -0.76670    52    53    47    51
 C    -4.10450   0.79130  -0.94880    53    50    56    52
 C    -2.85450  -0.68070  -2.83910    54    65    55    51
 C    -2.81450   0.68550  -2.89810    55    56    54    11
 C    -3.44820   1.41460  -1.99120    56    55    10    53
 C    -2.82680  -3.06220  -0.15390    57    46    59    61
 C    -1.73250  -3.07240  -2.20830    58    64    62    59
 C    -2.85210  -2.64810  -1.47970    59    57    58    51
 C    -0.64830  -4.19040  -0.34270    60    62    61    44
 C    -1.77570  -3.80530   0.37880    61    41    60    57
 C    -0.68100  -3.80370  -1.67900    62    71    58    60
 C     0.16830  -2.44330  -3.26140    63    64    71    66
 C    -1.18680  -2.27900  -3.19370    64    65    63    58
 C    -1.72380  -1.09670  -3.48290    65    64    54    68
 C     1.05710  -1.39460  -3.57970    66    63    73    67
 C     0.47380  -0.10450  -3.87400    67    68    83    66
 C    -0.92080  -0.02690  -3.82580    68    11    65    67
 C     2.58370  -2.47830  -2.01780    69    70    78    73
 C     1.65000  -3.43570  -1.73290    70    71    69    45
 C     0.46090  -3.43290  -2.35380    71    70    63    62
 C     3.00950  -0.29560  -2.72530    72    73    86    76
 C     2.32860  -1.46110  -2.95510    73    72    69    66
 C     4.02270   1.67320  -0.10120    74    75    37    81
 C     3.88720   1.21510  -1.37250    75    74    76    82
 C     3.86230  -0.12290  -1.62260    76    75    77    72
 C     3.99210  -1.08430  -0.60740    77    78    76    35
 C     3.35010  -2.27560  -0.86890    78    77    31    69
 C     2.38740   2.96000  -1.85580    79    82    85    80
 C     2.53400   3.43810  -0.58400    80    81    23    79
 C     3.32770   2.78890   0.29340    81    80    74    19
 C     3.05270   1.85060  -2.24920    82    79    86    75
 C     1.16140   1.10510  -3.58180    83    86    67    84
 C     0.44020   2.30430  -3.16930    84    85     9    83
 C     1.11320   3.17830  -2.29840    85    79     5    84
 C     2.46310   0.93880  -3.07330    86    82    72    83
