    86
C86-C1-12                                                                       
 C     2.20280  -1.33720  -3.07190     1     6     2    57
 C     2.80250  -0.10660  -2.90900     2     1     3     9
 C     3.77130  -0.07990  -1.88640     3     4    56     2
 C     4.03330   1.05800  -1.19380     4     5     3    18
 C     3.35620   2.18730  -1.49490     5     4    19    10
 C     0.91730  -1.46470  -3.53240     6     1    65     7
 C     0.09440  -0.36260  -3.82830     7     6    14     8
 C     0.65890   0.95850  -3.64740     8     9     7    12
 C     2.03110   1.06570  -3.20260     9    10     2     8
 C     2.37780   2.20700  -2.45800    10     5    24     9
 C    -1.62790   1.72050  -3.24320    11    81    13    12
 C    -0.25670   2.03370  -3.32360    12    11    23     8
 C    -2.13060   0.44280  -3.37600    13    14    11    86
 C    -1.30560  -0.61050  -3.65470    14    13    15     7
 C    -1.74230  -1.83370  -3.12490    15    64    84    14
 C     3.92980   1.56000   1.09600    16    18    27    17
 C     3.27740   2.73520   0.79950    17    19    30    16
 C     4.32910   0.73440   0.10280    18    16    37     4
 C     3.00170   3.04700  -0.49330    19    20    17     5
 C     1.83400   3.65450  -0.81470    20    19    21    24
 C     0.88490   4.01260   0.15230    21    22    20    29
 C    -0.40250   4.07770  -0.29880    22    21    48    25
 C     0.16490   3.13010  -2.49790    23    24    25    12
 C     1.46320   3.16800  -2.08130    24    23    10    20
 C    -0.75040   3.71450  -1.61210    25    82    23    22
 C     1.42350   1.56310   3.35850    26    28    33    31
 C     3.40450   1.03160   2.24270    27    16    28    35
 C     2.47530   1.96310   2.65330    28    26    30    27
 C     1.11090   3.62920   1.50940    29    30    21    32
 C     2.34380   2.99950   1.76080    30    17    28    29
 C     0.20980   2.20170   3.23170    31    52    26    32
 C    -0.02750   3.24410   2.30880    32    31    49    29
 C     1.25760   0.24120   3.69240    33    26    45    34
 C     2.12360  -0.78020   3.24930    34    33    40    35
 C     3.25940  -0.35750   2.46460    35    27    36    34
 C     3.74560  -1.20460   1.42270    36    38    37    35
 C     4.25070  -0.61560   0.24560    37    18    56    36
 C     3.11800  -2.42120   1.24040    38    41    36    54
 C     0.09850  -2.23170   3.30130    39    42    47    40
 C     1.50700  -2.05070   3.04570    40    41    34    39
 C     2.07070  -2.84880   2.03240    41    44    38    40
 C    -0.57650  -3.18470   2.50060    42    43    76    39
 C     0.02190  -3.88890   1.49920    43    44    42    61
 C     1.33470  -3.73210   1.27250    44    43    60    41
 C    -0.09240   0.07570   3.89570    45    33    47    52
 C    -2.04150  -1.06150   3.34540    46    75    53    47
 C    -0.70590  -1.14480   3.73170    47    45    46    39
 C    -1.49820   3.82650   0.51250    48    77    22    49
 C    -1.36740   3.33660   1.82730    49    48    32    50
 C    -2.39260   2.41470   2.26650    50    79    51    49
 C    -2.04110   1.37410   3.16900    51    52    53    50
 C    -0.74310   1.29430   3.61880    52    31    51    45
 C    -2.68470   0.13650   3.07220    53    73    46    51
 C     2.94730  -3.00350  -0.02750    54    60    55    38
 C     3.33370  -2.33130  -1.17550    55    56    57    54
 C     3.98880  -1.14880  -1.01540    56    55    37     3
 C     2.47670  -2.44260  -2.25150    57    58    55     1
 C     1.36020  -3.24860  -2.22080    58    65    57    59
 C     0.97420  -3.97960  -1.09450    59    60    58    62
 C     1.82620  -3.80670  -0.00170    60    44    54    59
 C    -0.85970  -4.09640   0.45810    61    43    62    66
 C    -0.41960  -4.12130  -0.85830    62    61    63    59
 C    -1.32460  -3.54270  -1.74410    63    64    69    62
 C    -0.87250  -2.83100  -2.82530    64    65    15    63
 C     0.43690  -2.66670  -3.04900    65    64    58     6
 C    -2.07030  -3.53670   0.84540    66    76    61    68
 C    -3.75630  -1.83280   0.36730    67    74    68    71
 C    -2.97140  -2.94160  -0.05860    68    69    66    67
 C    -2.53990  -2.97470  -1.37660    69    84    68    63
 C    -4.27250   0.51670  -0.03740    70    83    72    71
 C    -4.10890  -0.79200  -0.56090    71    70    85    67
 C    -3.99920   0.83800   1.27790    72    73    70    79
 C    -3.63400  -0.12540   2.11570    73    72    74    53
 C    -3.55100  -1.42880   1.71110    74    73    75    67
 C    -2.61810  -2.00800   2.53050    75    76    74    46
 C    -1.89230  -3.04320   2.11750    76    75    66    42
 C    -2.52800   3.45390  -0.31620    77    78    82    48
 C    -3.48890   2.60040   0.09330    78    77    79    83
 C    -3.42950   2.09890   1.35530    79    78    72    50
 C    -3.48890   1.54810  -2.01380    80    83    86    81
 C    -2.50480   2.40200  -2.42800    81    82    80    11
 C    -2.05140   3.36580  -1.59760    82    25    81    77
 C    -3.99130   1.64670  -0.76070    83    80    70    78
 C    -2.82950  -1.94130  -2.25020    84    85    69    15
 C    -3.60780  -0.85850  -1.90010    85    84    86    71
 C    -3.27500   0.32480  -2.56800    86    80    85    13
