    86
C86-C1-13                                                                       
 C    -1.28880  -2.99950  -2.35420     1     6     2    57
 C    -2.28710  -2.08190  -2.60250     2     1     3     9
 C    -3.31380  -2.05660  -1.64370     3     4    56     2
 C    -4.02560  -0.93260  -1.39110     4     5     3    18
 C    -3.75970   0.20690  -2.06100     5     4    19    10
 C     0.00020  -2.81360  -2.79130     6     1    65     7
 C     0.42740  -1.65240  -3.46390     7     6    14     8
 C    -0.56730  -0.62900  -3.70140     8     9     7    12
 C    -1.93320  -0.87290  -3.29230     9    10     2     8
 C    -2.73110   0.24650  -2.97840    10     5    24     9
 C     1.26700   0.97310  -3.57620    11    13    79    12
 C    -0.11000   0.74550  -3.75270    12    11    23     8
 C     2.18790  -0.01450  -3.34100    13    11    14    86
 C     1.81170  -1.33790  -3.27350    14    13    15     7
 C     2.61000  -2.11230  -2.41320    15    64    83    14
 C    -4.34280   0.30690   0.58610    16    18    27    17
 C    -4.13940   1.47860  -0.11210    17    19    30    16
 C    -4.30930  -0.88770  -0.04910    18    16    37     4
 C    -3.84240   1.41780  -1.43900    19    20    17     5
 C    -2.92010   2.26270  -1.96510    20    19    21    24
 C    -2.29160   3.25120  -1.19550    21    22    20    29
 C    -1.03090   3.58460  -1.64610    22    21    51    25
 C    -0.96710   1.81480  -3.34520    23    24    25    12
 C    -2.24870   1.54020  -2.96880    24    23    10    20
 C    -0.40540   2.93030  -2.70880    25    80    22    23
 C    -2.30560   2.01690   2.67130    26    28    31    33
 C    -3.79130   0.43000   1.83360    27    16    28    35
 C    -3.33970   1.72750   1.88720    28    26    27    30
 C    -2.55570   3.32510   0.20770    29    30    21    32
 C    -3.49740   2.38610   0.68230    30    17    28    29
 C    -1.44120   3.01550   2.31660    31    26    46    32
 C    -1.48990   3.70760   1.08100    32    31    52    29
 C    -1.65640   1.03760   3.40130    33    47    26    34
 C    -2.02220  -0.31250   3.33710    34    33    40    35
 C    -3.15970  -0.64180   2.50890    35    27    36    34
 C    -3.20160  -1.89700   1.83790    36    38    37    35
 C    -3.77000  -1.98140   0.55180    37    18    56    36
 C    -2.15870  -2.77630   2.05980    38    36    41    54
 C     0.41220  -0.76240   3.74030    39    42    50    40
 C    -0.94880  -1.22640   3.53150    40    41    34    39
 C    -1.09780  -2.46900   2.89420    41    44    38    40
 C     1.44920  -1.60580   3.29490    42    43    74    39
 C     1.22100  -2.80550   2.67130    43    44    61    42
 C    -0.03640  -3.22560   2.46930    44    43    60    41
 C     0.89230   3.12800   2.47070    45    46    48    53
 C    -0.27310   2.69660   2.95540    46    45    31    47
 C    -0.36320   1.47310   3.59160    47    33    46    50
 C     2.01930   2.37270   2.63920    48    45    70    49
 C     2.00700   1.10500   3.26840    49    48    73    50
 C     0.73570   0.62550   3.74620    50    47    39    49
 C    -0.03390   4.04670  -0.80020    51    22    52    75
 C    -0.22540   4.10530   0.57440    52    51    53    32
 C     0.94380   3.84480   1.29700    53    45    77    52
 C    -1.68500  -3.66430   1.08480    54    60    55    38
 C    -2.18360  -3.62390  -0.20420    55    56    57    54
 C    -3.22050  -2.77860  -0.44930    56    55    37     3
 C    -1.23840  -3.78790  -1.19700    57    58    55     1
 C     0.07850  -4.08850  -0.93330    58    65    57    59
 C     0.60250  -4.19210   0.36070    59    60    58    62
 C    -0.35660  -3.93770   1.34370    60    44    54    59
 C     2.21120  -3.08870   1.76820    61    43    66    62
 C     1.93470  -3.76510   0.57610    62    63    61    59
 C     2.66860  -3.29910  -0.51360    63    64    69    62
 C     2.09200  -3.18830  -1.75540    64    65    15    63
 C     0.81920  -3.54790  -1.95390    65    64    58     6
 C     3.13300  -2.06360   1.86880    66    61    68    74
 C     4.21420  -0.31700   0.73630    67    68    72    84
 C     3.88450  -1.65720   0.77920    68    67    66    69
 C     3.61260  -2.28970  -0.42360    69    63    68    83
 C     2.83190   2.70470   1.58200    70    71    48    77
 C     3.71130   1.79620   1.12420    71    70    72    81
 C     3.81580   0.57160   1.72370    72    71    67    73
 C     2.97960   0.19110   2.78790    73    74    72    49
 C     2.67180  -1.15010   2.82870    74    73    42    66
 C     1.19970   3.73540  -1.37540    75    80    76    51
 C     2.35970   3.48000  -0.64210    76    77    75    82
 C     2.17540   3.56660   0.72960    77    70    53    76
 C     2.93540   1.85510  -2.33110    78    79    86    82
 C     1.76630   2.12340  -2.99220    79    80    78    11
 C     0.93180   3.06650  -2.53940    80    79    25    75
 C     3.95380   1.70340  -0.22800    81    71    84    82
 C     3.27370   2.51120  -1.14070    82    81    78    76
 C     3.61240  -1.57550  -1.61630    83    85    15    69
 C     4.27320   0.37700  -0.47510    84    81    85    67
 C     3.93330  -0.24080  -1.66950    85    83    86    84
 C     3.23110   0.52630  -2.57420    86    85    78    13
