    86
C86-C2-4                                                                        
 C     1.54430  -0.07800   3.44360     1     2     6    53
 C     2.08220   1.14350   3.10970     2     1     3     9
 C     3.29800   1.06020   2.41220     3     4    52     2
 C     3.67140   2.01170   1.50030     4     5    19     3
 C     2.80180   3.01650   1.26270     5     4    10    20
 C     0.19000  -0.24390   3.65110     6     1    62     7
 C    -0.76160   0.77640   3.50950     7     6    15     8
 C    -0.24780   2.06690   3.08310     8     9    12     7
 C     1.17560   2.22620   2.89880     9    10     2     8
 C     1.61440   3.15510   1.93730    10    25     5     9
 C    -2.46350   2.48420   2.13300    11    16    80    12
 C    -1.14200   2.90670   2.31840    12    11    24     8
 C    -3.43050  -1.36210   2.09010    13    84    67    14
 C    -2.38840  -1.05840   3.00390    14    64    13    15
 C    -2.10020   0.34360   3.22670    15    16     7    14
 C    -2.93700   1.26000   2.58300    16    85    11    15
 C     4.13350   1.82550  -0.79290    17    18    30    19
 C     3.21360   2.79560  -1.05770    18    20    17    36
 C     4.39420   1.42970   0.49960    19    29     4    17
 C     2.59910   3.43620  -0.03100    20    21    18     5
 C     1.33750   3.88480  -0.14620    21    20    22    25
 C     0.60370   3.71300  -1.32430    22    23    21    35
 C    -0.74000   3.78150  -1.14040    23    22    37    26
 C    -0.60810   3.73980   1.28270    24    25    26    12
 C     0.73190   3.80750   1.11300    25    24    10    21
 C    -1.35810   3.89700   0.11360    26    81    24    23
 C     4.45370  -0.82510  -0.17710    27    29    43    28
 C     4.17120  -0.42170  -1.47790    28    30    32    27
 C     4.51100   0.10900   0.80860    29    27    19    52
 C     3.96640   0.88370  -1.76570    30    28    17    31
 C     2.92670   1.24530  -2.60670    31    36    30    34
 C     3.42560  -1.37710  -2.08520    32    28    44    33
 C     2.38920  -1.08350  -3.00530    33    47    32    34
 C     2.09690   0.31470  -3.24410    34    31    40    33
 C     1.14090   2.88690  -2.36070    35    36    22    39
 C     2.45830   2.47200  -2.17640    36    31    18    35
 C    -1.62210   3.12550  -1.96700    37    74    23    38
 C    -1.17800   2.19530  -2.92960    38    37    77    39
 C     0.24720   2.03930  -3.11440    39    35    38    40
 C     0.75750   0.74090  -3.53180    40    41    34    39
 C    -0.19390  -0.28080  -3.66100    41    78    46    40
 C     2.31590  -3.26290  -1.25300    42    44    48    45
 C     3.86810  -2.04400   0.02540    43    27    44    50
 C     3.33970  -2.42110  -1.18650    44    42    43    32
 C     1.34340  -3.13060  -2.20930    45    42    61    47
 C     0.08460  -1.61420  -3.41830    46    47    41    59
 C     1.34600  -2.02900  -3.07030    47    46    45    33
 C     1.77350  -3.78470  -0.10970    48    42    54    49
 C     2.16100  -3.33980   1.17860    49    48    57    50
 C     3.24850  -2.41160   1.24830    50    43    51    49
 C     3.23270  -1.37770   2.23510    51    53    52    50
 C     3.85210  -0.15700   1.99010    52    29    51     3
 C     2.09840  -1.29660   3.03300    53    58    51     1
 C     0.48320  -4.11620  -0.44220    54    55    48    61
 C    -0.48700  -4.11450   0.47310    55    54    73    56
 C    -0.18850  -3.68780   1.74780    56    55    63    57
 C     1.08930  -3.26580   2.10780    57    58    56    49
 C     1.07940  -2.20320   2.99840    58    53    57    62
 C    -1.09090  -2.22930  -2.98220    59    68    60    46
 C    -1.09750  -3.29050  -2.08350    60    59    61    72
 C     0.18490  -3.70200  -1.72530    61    45    54    60
 C    -0.09390  -1.58180   3.42680    62    64     6    58
 C    -1.35490  -3.11440   2.22220    63    65    56    64
 C    -1.35110  -2.00790   3.07470    64    62    63    14
 C    -2.32320  -3.26460   1.26330    65    67    73    63
 C    -3.87420  -2.04530  -0.01280    66    83    67    71
 C    -3.34360  -2.41530   1.20100    67    65    66    13
 C    -2.10140  -1.31150  -3.03170    68    59    70    78
 C    -3.84690  -0.17030  -1.98090    69    86    70    76
 C    -3.22800  -1.39970  -2.22090    70    68    69    71
 C    -3.25020  -2.43150  -1.23030    71    66    72    70
 C    -2.16740  -3.36190  -1.15340    72    73    60    71
 C    -1.77830  -3.80020   0.13140    73    65    55    72
 C    -2.80800   3.01210  -1.28330    74    75    81    37
 C    -3.65770   1.99320  -1.53160    75    74    76    82
 C    -3.29580   1.03640  -2.43900    76    75    77    69
 C    -2.08510   1.11280  -3.13810    77    78    76    38
 C    -1.54620  -0.10190  -3.46540    78    77    41    68
 C    -4.12900   1.82950   0.78230    79    85    80    82
 C    -3.22820   2.82180   1.02150    80    81    79    11
 C    -2.62330   3.46040  -0.00190    81    26    80    74
 C    -4.37830   1.42230  -0.51620    82    86    75    79
 C    -4.46940  -0.82670   0.18300    83    86    66    84
 C    -4.19120  -0.41280   1.48200    84    85    13    83
 C    -3.98750   0.89160   1.75770    85    84    79    16
 C    -4.51550   0.09780  -0.80450    86    83    82    69
