    86
C86-C2-2                                                                        
 C     0.02530   1.75230  -3.20800     1    16    49     2
 C     0.51860   0.46290  -3.50880     2     1     3    13
 C     1.91160   0.25940  -3.26510     3     4    50     2
 C     2.39350  -1.02970  -2.91630     4     3     7     5
 C     3.60330  -1.07890  -2.14810     5     6    44     4
 C     3.84630  -2.04140  -1.19890     6     9     5    21
 C     1.43070  -2.07930  -2.75990     7     8     4    14
 C     1.77490  -3.04790  -1.78610     8    27     9     7
 C     2.91130  -2.98020  -1.01680     9     6    22     8
 C    -0.92930  -2.77130  -2.37300    10    11    26    14
 C    -2.27210  -2.40000  -2.29240    11    15    80    10
 C    -1.85340  -0.23250  -3.26170    12    15    18    13
 C    -0.45600  -0.58990  -3.45540    13     2    12    14
 C     0.02400  -1.89790  -3.03420    14     7    10    13
 C    -2.73560  -1.18580  -2.74390    15    11    85    12
 C    -1.27100   2.04280  -2.90440    16    18     1    57
 C    -3.38890   1.39260  -2.20050    17    84    18    58
 C    -2.26110   1.11330  -2.98180    18    16    17    12
 C     4.10830  -1.84480   1.13590    19    20    32    21
 C     3.12560  -2.76840   1.31190    20    22    19    37
 C     4.53960  -1.50310  -0.13630    21    31     6    19
 C     2.58870  -3.40230   0.24460    22    23    20     9
 C     1.31910  -3.80690   0.25250    23    22    24    27
 C     0.48820  -3.60760   1.35470    24    25    23    36
 C    -0.82780  -3.67950   1.07670    25    24    71    28
 C    -0.48530  -3.62600  -1.32010    26    27    28    10
 C     0.82390  -3.70110  -1.04710    27    26     8    23
 C    -1.33020  -3.80900  -0.22540    28    81    26    25
 C     4.70130   0.75120   0.53530    29    45    30    31
 C     4.21030   0.40600   1.77480    30    32    34    29
 C     4.81850  -0.21260  -0.44900    31    21    44    29
 C     3.89040  -0.87520   2.07460    32    30    19    38
 C     1.27040   2.05990   2.92260    33    35    78    48
 C     3.38420   1.40330   2.21880    34    30    46    35
 C     2.25730   1.12400   3.00850    35    33    34    40
 C     0.93270  -2.75950   2.41310    36    37    24    41
 C     2.27140  -2.38370   2.33750    37    38    20    36
 C     2.73820  -1.17500   2.79410    38    37    32    40
 C     0.45380  -0.57730   3.48700    39    77    40    41
 C     1.85360  -0.22210   3.30210    40    38    35    39
 C    -0.02970  -1.89050   3.06810    41    72    36    39
 C     3.78500   1.24810  -1.98420    42    44    50    43
 C     3.76670   2.25750  -1.03290    43    45    53    42
 C     4.28520   0.04050  -1.69770    44    42    31     5
 C     4.17680   1.98030   0.23470    45    43    29    46
 C     3.38840   2.43200   1.26650    46    45    47    34
 C     2.28480   3.25960   1.07730    47    48    46    52
 C     1.27640   3.11870   1.99490    48    60    47    33
 C     0.78030   2.70910  -2.58010    49    51    54     1
 C     2.66030   1.35980  -2.75520    50    51    42     3
 C     2.06250   2.52200  -2.35930    51    49    50    53
 C     1.88200   3.63500  -0.23870    52    53    47    55
 C     2.66750   3.04160  -1.24470    53    43    51    52
 C     0.00610   3.45730  -1.73880    54    57    49    55
 C     0.49280   3.89880  -0.49800    55    54    61    52
 C    -2.29770   3.25380  -1.06330    56    57    58    59
 C    -1.28940   3.10450  -1.98170    57    54    56    16
 C    -3.40200   2.42120  -1.25050    58    65    56    17
 C    -1.88950   3.63470   0.24510    59    62    56    61
 C    -0.01660   3.47150   1.75530    60    48    67    61
 C    -0.50380   3.90040   0.51370    61    60    55    59
 C    -2.66800   3.03360   1.25220    62    64    69    59
 C    -3.77760   1.24720   1.97310    63    66    68    64
 C    -3.77320   2.25960   1.02790    64    65    62    63
 C    -4.21040   1.97820  -0.22960    65    64    83    58
 C    -4.28660   0.03380   1.68940    66    63    74    86
 C    -0.79010   2.72450   2.60140    67    69    60    78
 C    -2.66340   1.35990   2.76190    68    69    63    76
 C    -2.06830   2.52320   2.37480    69    67    68    62
 C    -2.90900  -2.97890   1.05180    70    73    71    81
 C    -1.77890  -3.03740   1.82420    71    25    70    72
 C    -1.43530  -2.06620   2.79580    72    71    75    41
 C    -3.84260  -2.03430   1.22770    73    70    74    82
 C    -3.60530  -1.06980   2.17390    74    73    66    75
 C    -2.39810  -1.01500   2.94330    75    76    74    72
 C    -1.91090   0.27050   3.28660    76    75    68    77
 C    -0.51910   0.48120   3.53100    77    78    76    39
 C    -0.02630   1.77090   3.22820    78    33    67    77
 C    -4.12190  -1.86770  -1.10800    79    80    85    82
 C    -3.14150  -2.79160  -1.28040    80    81    79    11
 C    -2.60400  -3.41270  -0.21430    81    28    80    70
 C    -4.55000  -1.51060   0.15830    82    86    79    73
 C    -4.74280   0.75350  -0.52210    83    65    86    84
 C    -4.22020   0.40060  -1.75350    84    85    17    83
 C    -3.89850  -0.88450  -2.03910    85    84    79    15
 C    -4.84810  -0.21770   0.44860    86    82    83    66
