    86
C86-C2v-10                                                                      
 C    -2.58180   2.20290  -2.26970     1     2    14    56
 C    -3.31710   1.03330  -2.28190     2     1     3     7
 C    -4.09560   0.80280  -1.13100     3     4    55     2
 C    -4.36630  -0.45370  -0.67810     4     5     3    18
 C    -3.88130  -1.52010  -1.35840     5     4     8    19
 C    -1.47100   0.04860  -3.61030     6     9    12     7
 C    -2.76310  -0.07620  -2.98380     7     8     2     6
 C    -3.10790  -1.34710  -2.47040     8     5    11     7
 C    -0.68580  -1.10880  -3.65920     9    86    10     6
 C    -1.07160  -2.30080  -3.07280    10    11    24     9
 C    -2.24570  -2.41390  -2.47720    11    10     8    20
 C    -0.72470   1.26260  -3.58100    12    14     6    13
 C     0.73250   1.26640  -3.58530    13    15    85    12
 C    -1.36240   2.32480  -2.91730    14    64     1    12
 C     1.37790   2.32970  -2.92630    15    63    81    13
 C    -3.88650  -1.51140   1.36350    16    18    22    17
 C    -3.42480  -2.61570   0.67510    17    19    28    16
 C    -4.37010  -0.44060   0.68950    18    16    35     4
 C    -3.41550  -2.62280  -0.67280    19    17    20     5
 C    -2.36200  -3.18330  -1.33620    20    19    11    26
 C    -1.07860  -2.27150   3.08240    21    23    29    31
 C    -3.11320  -1.33000   2.47330    22    16    23    33
 C    -2.24970  -2.39480   2.48290    23    21    22    28
 C     0.00590  -2.99480  -2.61250    24    10    78    25
 C     0.00200  -3.74500  -1.40100    25    24    52    26
 C    -1.24210  -3.79450  -0.70660    26    20    25    27
 C    -1.24660  -3.78480   0.72730    27    28    30    26
 C    -2.36730  -3.16930   1.34670    28    17    23    27
 C    -0.00170  -2.97020   2.61740    29    44    21    30
 C     0.00340  -3.73260   1.41290    30    51    29    27
 C    -0.69350  -1.08290   3.67340    31    45    21    32
 C    -1.48420   0.06820   3.61310    32    31    38    33
 C    -2.77610  -0.05200   2.98420    33    22    34    32
 C    -3.33120   1.05090   2.27500    34    36    35    33
 C    -4.10570   0.82330   1.12070    35    18    55    34
 C    -2.59300   2.21930   2.25410    36    34    39    53
 C     0.71900   1.27560   3.57860    37    40    48    38
 C    -0.73640   1.28050   3.57230    38    39    32    37
 C    -1.37140   2.33650   2.89750    39    42    36    38
 C     1.36050   2.33200   2.90300    40    41    73    37
 C     0.66170   3.31170   2.23940    41    42    60    40
 C    -0.67830   3.31690   2.23910    42    41    59    39
 C     2.24400  -2.38790   2.48010    43    44    46    49
 C     1.07180  -2.26680   3.08110    44    43    29    45
 C     0.68210  -1.08190   3.67500    45    31    44    48
 C     3.11470  -1.32290   2.46910    46    69    43    47
 C     2.76280  -0.05540   2.99460    47    46    72    48
 C     1.47130   0.06740   3.62080    48    45    37    47
 C     2.36560  -3.16870   1.34710    49    76    43    51
 C     2.36280  -3.16290  -1.33870    50    75    80    52
 C     1.24770  -3.78560   0.72210    51    49    30    52
 C     1.24750  -3.78670  -0.70870    52    50    25    51
 C    -2.58170   3.09100   1.15590    53    59    54    36
 C    -3.24780   2.76740  -0.01310    54    55    53    56
 C    -4.01070   1.63690  -0.01040    55    54    35     3
 C    -2.56620   3.08030  -1.17830    56    57    54     1
 C    -1.36190   3.74920  -1.18250    57    64    56    58
 C    -0.70950   4.14770  -0.01190    58    59    57    61
 C    -1.37640   3.76220   1.14880    59    42    53    58
 C     1.36140   3.75070   1.14610    60    41    65    61
 C     0.70620   4.14350  -0.02210    61    62    60    58
 C     1.36630   3.74820  -1.18610    62    63    68    61
 C     0.67130   3.31720  -2.28340    63    64    62    15
 C    -0.66420   3.31710  -2.27940    64    63    57    14
 C     2.56230   3.07400   1.16570    65    60    67    73
 C     3.99020   1.62520   0.00300    66    67    71    82
 C     3.22440   2.76090  -0.01060    67    66    68    65
 C     2.57120   3.07630  -1.18790    68    62    67    81
 C     3.88620  -1.51790   1.35890    69    70    46    76
 C     4.36020  -0.44360   0.68370    70    69    71    77
 C     4.09030   0.81470   1.13820    71    70    66    72
 C     3.31700   1.05150   2.29020    72    73    71    47
 C     2.58510   2.21600   2.27080    73    72    40    65
 C     3.88300  -1.51390  -1.35750    74    77    79    75
 C     3.42400  -2.61810  -0.66490    75    76    50    74
 C     3.42690  -2.62190   0.67980    76    75    49    69
 C     4.36070  -0.43780  -0.68530    77    74    82    70
 C     1.07880  -2.29280  -3.07970    78    80    24    86
 C     3.11530  -1.33820  -2.47340    79    74    80    84
 C     2.25260  -2.39970  -2.48380    80    78    79    50
 C     2.59890   2.21180  -2.28710    81    83    15    68
 C     4.09490   0.81760  -1.13650    82    77    66    83
 C     3.32810   1.04250  -2.29710    83    81    82    84
 C     2.77130  -0.06640  -2.99650    84    79    83    85
 C     1.47400   0.04910  -3.62040    85    86    13    84
 C     0.68940  -1.10420  -3.67010    86     9    78    85
