    86
C86-C1-11                                                                       
 C     1.20940   0.89500   3.67630     1     6     2    51
 C     2.10070  -0.12140   3.42510     2     1     3     9
 C     3.22900   0.25800   2.67970     3     4    50     2
 C     3.88150  -0.60520   1.86520     4     5     3    18
 C     3.42470  -1.87400   1.75510     5     4    19    10
 C    -0.12870   0.66510   3.86310     6     1    56     7
 C    -0.72540  -0.60380   3.76160     7     6    14     8
 C     0.14810  -1.71020   3.43900     8     7    12     9
 C     1.56760  -1.44900   3.29850     9    10     2     8
 C     2.30160  -2.28940   2.43870    10     5    24     9
 C    -1.79710  -2.75370   2.38560    11    81    13    12
 C    -0.42530  -2.81640   2.70310    12    11    23     8
 C    -2.60660  -1.67330   2.68620    13    14    11    86
 C    -2.09940  -0.58560   3.36130    14    13    15     7
 C    -2.71920   0.62930   3.02490    15    55    84    14
 C     4.36920  -0.55580  -0.43090    16    18    27    17
 C     3.93130  -1.86020  -0.54080    17    19    30    16
 C     4.35660   0.06890   0.77060    18    16    37     4
 C     3.46830  -2.51580   0.55210    19    20    17     5
 C     2.41450  -3.36060   0.45880    20    19    21    24
 C     1.76990  -3.60230  -0.76180    21    22    20    29
 C     0.46150  -3.97330  -0.63370    22    21    44    25
 C     0.38500  -3.56310   1.78390    23    24    25    12
 C     1.71100  -3.27450   1.67330    24    23    10    20
 C    -0.20240  -4.03860   0.60120    25    82    23    22
 C     2.44080  -0.43680  -3.22280    26    28    33    31
 C     3.99170   0.13020  -1.55690    27    16    28    35
 C     3.38550  -0.81040  -2.36490    28    26    30    27
 C     2.16690  -2.87360  -1.91760    29    30    21    32
 C     3.28140  -2.02570  -1.73920    30    28    17    29
 C     1.35320  -1.24790  -3.49810    31    47    26    32
 C     1.14410  -2.47630  -2.86090    32    31    45    29
 C     2.10320   0.88210  -3.33390    33    39    26    34
 C     2.63530   1.89630  -2.49770    34    33    42    35
 C     3.61230   1.49590  -1.53560    35    27    34    36
 C     3.63310   2.13100  -0.25470    36    38    37    35
 C     3.99410   1.37790   0.87640    37    18    50    36
 C     2.67680   3.11760  -0.00630    38    43    48    36
 C     0.82620   0.87030  -3.81320    39    40    33    47
 C     0.02020   1.89860  -3.56380    40    39    79    41
 C     0.44360   2.93540  -2.76680    41    40    62    42
 C     1.72120   2.94580  -2.20450    42    43    41    34
 C     1.75790   3.52830  -0.94700    43    38    42    61
 C    -0.48720  -3.67600  -1.60640    44    74    22    45
 C    -0.22120  -2.85360  -2.71730    45    44    32    77
 C    -1.03360  -0.71570  -3.71770    46    47    77    78
 C     0.32230  -0.41560  -3.88980    47    31    39    46
 C     2.09090   3.31220   1.24150    48    49    52    38
 C     2.40380   2.48570   2.30300    49    50    51    48
 C     3.35210   1.52800   2.10430    50    49    37     3
 C     1.35480   2.18120   3.13640    51    54    49     1
 C     0.81520   3.83780   1.06160    52    61    53    48
 C    -0.24360   3.58910   1.92890    53    52    54    59
 C     0.10320   2.72680   2.98450    54    56    51    53
 C    -2.03910   1.81320   3.07690    55    56    15    60
 C    -0.78210   1.83050   3.50520    56    55    54     6
 C    -2.86360   3.02000  -0.55420    57    65    73    58
 C    -1.77810   3.73110   0.01560    58    57    63    59
 C    -1.56740   3.53980   1.41940    59    60    53    58
 C    -2.45750   2.65610   2.07200    60    66    55    59
 C     0.60950   3.99600  -0.29190    61    52    63    43
 C    -0.68620   3.42590  -2.13640    62    69    41    63
 C    -0.66290   3.94730  -0.84480    63    61    62    58
 C    -4.08350   1.11750  -0.64080    64    65    72    68
 C    -3.68780   2.17790   0.14830    65    66    57    64
 C    -3.48460   1.98860   1.46110    66    65    60    84
 C    -4.00710  -1.19260  -0.98900    67    83    68    70
 C    -4.32760  -0.14780  -0.11660    68    64    67    85
 C    -1.74710   2.68140  -2.59950    69    73    79    62
 C    -3.37320  -1.00500  -2.22840    70    71    76    67
 C    -3.08770   0.25230  -2.71200    71    70    72    78
 C    -3.50910   1.31120  -1.89110    72    73    64    71
 C    -2.81920   2.49390  -1.82580    73    69    72    57
 C    -1.69920  -3.70640  -0.97560    74    75    44    82
 C    -2.71740  -2.93590  -1.41220    75    74    76    83
 C    -2.53490  -2.08720  -2.46760    76    75    70    77
 C    -1.31370  -1.99260  -3.15590    77    76    46    45
 C    -1.91640   0.40990  -3.50080    78    79    71    46
 C    -1.31860   1.68520  -3.44030    79    40    69    78
 C    -3.40160  -2.59310   0.83140    80    86    83    81
 C    -2.33610  -3.33260   1.25740    81    82    80    11
 C    -1.52150  -3.92170   0.36250    82    25    81    74
 C    -3.59530  -2.40090  -0.50590    83    80    67    75
 C    -3.67430   0.74290   2.01890    84    66    85    15
 C    -4.11550  -0.34640   1.28260    85    84    86    68
 C    -3.60750  -1.56780   1.70500    86    80    85    13
