    86
C86-C1-7                                                                        
 C     2.58660  -1.57200   2.64070     1    17     3     2
 C     2.27520  -0.24520   3.14350     2     4     8     1
 C     3.54340  -1.66300   1.59990     3    55    15     1
 C     3.03560   0.80310   2.61200     4    53     5     2
 C     2.50470   2.07150   2.43390     5     4    58     6
 C     1.19470   2.40840   2.78910     6     5    13     7
 C     0.37910   1.41210   3.44040     7     6    11     8
 C     0.95400   0.07990   3.59870     8     9     2     7
 C     0.05110  -0.98850   3.63530     9    29    16     8
 C    -1.57740   2.62430   2.61880    10    81    12    11
 C    -1.05870   1.54590   3.36480    11    10    28     7
 C    -0.77380   3.47400   1.88670    12    13    10    86
 C     0.58660   3.41270   1.96220    13    12    14     6
 C     1.24240   3.83830   0.79860    14    59    13    84
 C     3.38890  -2.52860   0.53160    15    19    39     3
 C     0.35030  -2.25830   3.16250    16    17     9    20
 C     1.58300  -2.56440   2.62890    17    16    18     1
 C     1.53650  -3.49670   1.57750    18    19    22    17
 C     2.40140  -3.41830   0.52520    19    15    18    33
 C    -0.82690  -2.85160   2.72700    20    24    21    16
 C    -0.85500  -3.73450   1.66090    21    22    20    23
 C     0.35520  -4.02680   1.08840    22    21    18    34
 C    -1.95210  -3.63350   0.81510    23    27    35    21
 C    -1.85080  -1.97310   2.97170    24    20    26    29
 C    -3.61650  -0.73720   2.06480    25    26    76    30
 C    -2.98330  -1.94250   2.17510    26    25    27    24
 C    -2.99330  -2.76410   1.06270    27    23    26    78
 C    -1.91100   0.40150   3.42510    28    29    30    11
 C    -1.31720  -0.82710   3.54940    29    28     9    24
 C    -3.13250   0.39940   2.71980    30    82    25    28
 C     0.94960  -2.89150  -2.63500    31    45    32    37
 C     2.04850  -3.06730  -1.81760    32    31    33    38
 C     1.75620  -3.75590  -0.62970    33    19    34    32
 C     0.48870  -4.18310  -0.28650    34    36    33    22
 C    -1.82450  -3.75410  -0.55770    35    23    36    50
 C    -0.58730  -4.01410  -1.12770    36    37    34    35
 C    -0.33080  -3.37090  -2.31660    37    36    52    31
 C     3.06200  -2.07240  -1.83540    38    39    32    41
 C     3.78640  -1.90070  -0.63270    39    40    15    38
 C     4.35710  -0.73320  -0.24540    40    43    39    55
 C     2.89230  -0.87830  -2.64410    41    42    46    38
 C     3.52470   0.29130  -2.20390    42    43    62    41
 C     4.28510   0.35580  -1.04580    43    40    56    42
 C    -0.55170  -1.60680  -3.57250    44    47    52    45
 C     0.80060  -1.75950  -3.40450    45    44    31    46
 C     1.70540  -0.68730  -3.40770    46    45    41    49
 C    -1.06970  -0.39560  -3.76310    47    44    73    48
 C    -0.24760   0.71220  -3.76540    48    47    66    49
 C     1.13850   0.63660  -3.59300    49    48    61    46
 C    -2.77730  -2.92770  -1.14940    50    78    51    35
 C    -2.54160  -2.27290  -2.35280    51    50    52    72
 C    -1.27500  -2.55160  -2.89820    52    44    37    51
 C     4.02210   0.63300   1.65270    53    55    54     4
 C     4.06960   1.73810   0.85740    54    58    53    56
 C     4.21980  -0.58700   1.12400    55    53     3    40
 C     4.19230   1.60020  -0.50980    56    43    57    54
 C     3.41610   2.33760  -1.34680    57    60    56    62
 C     3.17220   2.62970   1.35290    58    59    54     5
 C     2.49620   3.44030   0.51030    59    14    58    60
 C     2.60260   3.29320  -0.85030    60    57    63    59
 C     1.74040   1.78840  -3.02210    61    62    49    64
 C     2.97130   1.56330  -2.39600    62    57    61    42
 C     1.40120   3.57950  -1.42180    63    60    84    64
 C     0.90540   2.88820  -2.54230    64    63    67    61
 C    -2.29140   1.25060  -3.10930    65    68    73    66
 C    -1.02900   1.76980  -3.34590    66    48    65    67
 C    -0.50990   2.87150  -2.66550    67    66    64    70
 C    -3.10010   1.80800  -2.20920    68    65    69    74
 C    -2.66610   2.91850  -1.51990    69    83    68    70
 C    -1.37610   3.46910  -1.67890    70    69    85    67
 C    -3.94250  -0.39810  -1.53970    71    74    77    72
 C    -3.11290  -0.98780  -2.55030    72    73    51    71
 C    -2.32370  -0.09630  -3.30880    73    65    47    72
 C    -3.93510   1.01650  -1.44160    74    79    68    71
 C    -4.21450   1.02960   0.89220    75    79    76    82
 C    -4.23630  -0.33590   0.87810    76    75    25    77
 C    -4.13460  -1.09610  -0.30370    77    78    76    71
 C    -3.52950  -2.33520  -0.15170    78    50    77    27
 C    -4.08340   1.71320  -0.27310    79    75    74    83
 C    -2.69480   3.28980   0.80980    80    86    83    81
 C    -2.79380   2.57860   1.97110    81    82    80    10
 C    -3.55840   1.47250   2.01300    82    81    30    75
 C    -3.32250   2.85780  -0.31390    83    80    69    79
 C     0.56350   4.03850  -0.41150    84    85    63    14
 C    -0.79560   4.00500  -0.49890    85    84    86    70
 C    -1.46050   3.84130   0.71910    86    80    85    12
