    52
C52-C1-97                                                                       
 C    -2.91500  -0.84000   1.59650     1    35     2     7
 C    -3.57560   0.18730   0.96100     2     5     1     3
 C    -3.76770   0.08970  -0.42690     3    15    25     2
 C    -1.29320   2.61760   1.11830     4    13    23     6
 C    -3.10610   1.44620   1.18910     5     2    14     6
 C    -1.92190   1.67880   1.87110     6     4     5    11
 C    -1.67900  -0.62250   2.28650     7    40    11     1
 C     2.54130  -0.26730   1.95980     8    51    41     9
 C     1.18610  -0.40040   2.32000     9     8    39    10
 C     0.33630   0.79090   2.37890    10    11     9    12
 C    -1.10620   0.66440   2.40300    11     6     7    10
 C     0.92770   1.95900   1.71300    12    52    13    10
 C     0.03240   2.70660   0.95370    13     4    12    47
 C    -3.10590   2.14740   0.00420    14    23    15     5
 C    -3.36530   1.26720  -0.97320    15    14     3    18
 C    -2.33410  -0.40000  -2.05210    16    18    21    25
 C    -1.20450   1.79050  -2.00370    17    19    24    18
 C    -2.39180   1.01010  -1.92650    18    15    16    17
 C    -0.02920   1.14530  -2.40240    19    17    20    50
 C     0.02180  -0.24130  -2.61110    20    33    21    19
 C    -1.10890  -1.03710  -2.37700    21    20    22    16
 C    -0.82210  -2.25590  -1.74280    22    26    21    32
 C    -1.96530   2.84030  -0.03360    23    14     4    24
 C    -1.01050   2.78530  -1.00680    24    23    47    17
 C    -3.25710  -0.96940  -1.12760    25     3    27    16
 C    -1.70890  -2.71310  -0.80830    26    29    22    27
 C    -2.87360  -2.09240  -0.44480    27    26    25    35
 C     0.32870  -3.00750   0.03080    28    29    38    32
 C    -0.98760  -3.11160   0.25570    29    36    28    26
 C     3.66300  -0.82580  -0.78790    30    42    31    46
 C     2.69980  -1.82150  -0.79800    31    30    34    37
 C     0.48220  -2.55820  -1.30620    32    34    22    28
 C     1.33420  -0.65210  -2.35330    33    44    20    34
 C     1.60660  -1.84860  -1.66690    34    32    31    33
 C    -2.74590  -2.03060   0.94320    35    36     1    27
 C    -1.58530  -2.59410   1.32240    36    29    35    40
 C     2.46270  -2.09290   0.57320    37    41    38    31
 C     1.20590  -2.47140   0.99490    38    37    28    39
 C     0.54180  -1.65890   2.02470    39    40     9    38
 C    -0.85640  -1.74070   2.10120    40    36     7    39
 C     3.26320  -1.20290   1.22190    41    42    37     8
 C     4.17680  -0.57180   0.44100    42    43    30    41
 C     4.08840   0.73420   0.68310    43    42    51    45
 C     2.13290   0.45490  -2.09420    44    46    33    50
 C     3.56640   1.35590  -0.41590    45    43    48    46
 C     3.29010   0.38080  -1.35920    46    44    45    30
 C     0.25820   2.92560  -0.42960    47    49    24    13
 C     2.52080   2.20390  -0.10250    48    45    49    52
 C     1.44300   2.46360  -0.95330    49    47    48    50
 C     1.25740   1.53230  -1.99710    50    44    19    49
 C     3.11600   0.94380   1.59730    51    43    52     8
 C     2.23170   1.90950   1.26030    52    51    12    48
