    52
C52-C2-83                                                                       
 C     1.55420   2.68760  -0.64160     1     2     4    37
 C     2.59870   1.95930  -0.99550     2     1     3    12
 C     3.54000   1.58630  -0.06360     3     5     2    22
 C     0.35220   2.67080  -1.33010     4    39     1    10
 C     4.17080   0.45990  -0.47310     5    17     3     6
 C     3.28910  -0.00450  -1.41240     6     7    12     5
 C     2.92930  -1.28170  -1.15150     7     6    15    18
 C    -2.36150   2.02160  -1.30970     8    38    47     9
 C    -1.45660   1.13580  -2.02560     9     8    10    50
 C    -0.04460   1.49720  -2.06850    10    11     4     9
 C     0.99560   0.51550  -2.20950    11    12    10    14
 C     2.31760   0.86250  -1.80470    12     6     2    11
 C    -0.76300  -1.27210  -2.12450    13    51    14    50
 C     0.64770  -0.88930  -2.16150    14    11    13    15
 C     1.67560  -1.75010  -1.53370    15    16     7    14
 C     1.19540  -2.75200  -0.69880    16    52    15    19
 C     4.17980  -0.47110   0.47690    17     5    18    21
 C     3.55780  -1.60720   0.07330    18    17    20     7
 C     1.57890  -2.71310   0.66450    19    20    34    16
 C     2.62340  -1.97880   1.00380    20    19    18    24
 C     3.32500   0.00900   1.42460    21    22    17    24
 C     2.95280   1.29420   1.18260    22    21    23     3
 C     1.69950   1.74980   1.56800    23    22    37    27
 C     2.34930  -0.86760   1.81050    24    21    20    26
 C    -0.01660  -1.50110   2.08100    25    26    34    29
 C     1.02760  -0.51790   2.22760    26    24    25    27
 C     0.67470   0.89070   2.19240    27    26    31    23
 C    -2.31880  -1.99290   1.31490    28    35    43    29
 C    -1.42200  -1.12330   2.04470    29    28    30    25
 C    -1.79480   0.27880   2.09790    30    29    42    31
 C    -0.73060   1.27850   2.14260    31    32    27    30
 C    -1.05660   2.52490   1.51650    32    36    41    31
 C    -0.54380  -3.19960   0.49310    33    35    34    52
 C     0.36430  -2.67060   1.32440    34    33    19    25
 C    -1.81120  -2.93770   0.48330    35    33    28    45
 C    -0.08020   3.05550   0.73740    36    37    39    32
 C     1.18340   2.72390   0.71960    37    36    23     1
 C    -1.82930   2.97310  -0.48400    38    39     8    41
 C    -0.56250   3.22630  -0.51410    39    38     4    36
 C    -3.14550   1.82180   0.73890    40    41    42    47
 C    -2.20890   2.71410   0.80460    41    40    32    38
 C    -3.03660   0.64640   1.43250    42    44    40    30
 C    -3.32550  -1.48650   0.54720    43    44    28    46
 C    -3.66920  -0.23860   0.61030    44    43    42    48
 C    -2.20840  -2.71520  -0.81110    45    46    51    35
 C    -3.16480  -1.82430  -0.77990    46    45    49    43
 C    -3.41170   1.51260  -0.58280    47    48     8    40
 C    -3.74970   0.25640  -0.67080    48    47    49    44
 C    -3.10770  -0.64950  -1.48210    49    46    48    50
 C    -1.83820  -0.27030  -2.09160    50    49     9    13
 C    -1.05300  -2.54380  -1.52310    51    52    45    13
 C    -0.07330  -3.09030  -0.76580    52    16    33    51
