    52
C52-C1-370                                                                      
 C    -3.77920  -0.67220   0.31680     1     2    35    15
 C    -3.74010   0.64750   0.51010     2     1     6     3
 C    -2.93430   0.93870   1.58370     3    11    37     2
 C     1.14210   0.76030   2.39730     4    41     5    51
 C    -0.26760   0.89030   2.43780     5     4    38    10
 C    -3.30450   1.47120  -0.45500     6     2     7    13
 C    -2.48600   2.40440   0.05940     7     9     6    11
 C    -0.32000   3.11920  -0.31680     8    21     9    12
 C    -1.52010   2.73140  -0.80340     9     7     8    17
 C    -0.83520   2.09500   1.81390    10    11    12     5
 C    -2.15540   2.02750   1.36680    11     3    10     7
 C     0.06230   2.86660   1.02570    12    52     8    10
 C    -2.69320   0.96310  -1.60210    13     6    17    14
 C    -2.62530  -0.43490  -1.80880    14    13    16    15
 C    -3.25410  -1.26370  -0.83140    15    24     1    14
 C    -1.38460  -0.89560  -2.34040    16    22    20    14
 C    -1.58130   1.79600  -1.86230    17    19    13     9
 C     0.81770   1.94040  -2.03660    18    21    19    30
 C    -0.38140   1.32670  -2.43480    19    20    18    17
 C    -0.30260  -0.04680  -2.67340    20    19    32    16
 C     0.79970   2.86860  -1.02690    21    49     8    18
 C    -0.79000  -2.10170  -1.94560    22    25    23    16
 C    -1.34090  -2.76280  -0.86540    23    24    22    26
 C    -2.50960  -2.32180  -0.36920    24    23    34    15
 C     0.58100  -2.01070  -2.07170    25    28    22    32
 C    -0.48150  -3.02820   0.20290    26    27    23    36
 C     0.85780  -2.97630   0.05620    27    26    42    28
 C     1.43340  -2.59640  -1.15940    28    29    25    27
 C     2.62770  -2.05620  -0.86470    29    28    43    33
 C     2.05240   1.26880  -1.89390    30    18    31    46
 C     2.15290  -0.11520  -2.16510    31    30    33    32
 C     0.92180  -0.73200  -2.53310    32    25    20    31
 C     3.06850  -0.84300  -1.36380    33    29    48    31
 C    -2.38670  -2.23300   0.97930    34    35    24    36
 C    -3.08390  -1.19740   1.38820    35    34    37     1
 C    -1.10370  -2.49540   1.33910    36    34    26    39
 C    -2.42730  -0.22400   2.10250    37     3    35    38
 C    -1.05680  -0.33750   2.47230    38    37     5    39
 C    -0.35460  -1.60010   2.17210    39    40    36    38
 C     1.06510  -1.65330   2.05150    40    41    39    42
 C     1.80920  -0.47710   2.30270    41    45     4    40
 C     1.69310  -2.48850   1.05760    42    43    27    40
 C     2.88800  -2.12250   0.46730    43    44    29    42
 C     3.58220  -1.04270   0.80590    44    43    45    48
 C     3.04990  -0.23380   1.73090    45    50    44    41
 C     2.77560   1.85180  -0.81260    46    49    47    30
 C     3.54620   1.06470   0.00620    47    48    46    50
 C     3.76430  -0.24540  -0.31310    48    47    44    33
 C     1.87640   2.73220  -0.26880    49    21    46    52
 C     3.09890   1.04520   1.33850    50    45    51    47
 C     1.99930   1.71750   1.79720    51    52    50     4
 C     1.43240   2.68410   1.03980    52    51    12    49
