    52
C52-C1-79                                                                       
 C     3.37520  -0.21480   1.35930     1     6    27     9
 C     1.16060   1.42340   1.98270     2     3     4     8
 C    -0.08390   2.07690   1.89830     3    10    13     2
 C     1.11910   0.01770   2.32800     4     6     2     5
 C    -0.17320  -0.64790   2.41130     5     7    14     4
 C     2.25420  -0.72930   1.95260     6     1    30     4
 C    -0.20690  -1.96790   1.85530     7    29    51     5
 C     2.23310   1.87630   1.08650     8     9    17     2
 C     3.29420   1.03180   0.79180     9     1     8    18
 C    -0.29330   3.08230   0.98740    10    16    12     3
 C    -2.24680   2.06380   1.21380    11    12    25    13
 C    -1.53100   2.92850   0.47850    12    11    10    21
 C    -1.31540   1.43530   2.07360    13     3    14    11
 C    -1.41800   0.06080   2.33280    14    13    15     5
 C    -2.60480  -0.56150   1.85790    15    52    24    14
 C     0.58220   3.21950   0.01200    16    10    17    22
 C     1.80750   2.68820   0.00490    17    16    19     8
 C     3.83360   0.84180  -0.49300    18    26    20     9
 C     1.97620   2.13350  -1.27720    19    20    37    17
 C     2.87950   1.15710  -1.44070    20    19    18    32
 C    -1.41980   2.72960  -0.89370    21    22    43    12
 C    -0.09210   2.90290  -1.11650    22    37    16    21
 C    -4.07250  -0.65760   0.17300    23    24    41    48
 C    -3.57590   0.14060   1.13280    24    23    25    15
 C    -3.24550   1.36130   0.62990    25    11    24    42
 C     4.18980  -0.45690  -0.57960    26    27    18    33
 C     4.03090  -1.12040   0.56580    27    26    28     1
 C     3.14650  -2.13320   0.45350    28    27    30    35
 C     0.92340  -2.48480   1.25460    29    30     7    36
 C     2.16860  -2.01720   1.42000    30    29    28     6
 C     1.04100  -0.22440  -2.32850    31    32    40    38
 C     2.39950  -0.04070  -1.96680    32    33    20    31
 C     3.20270  -0.98650  -1.37980    33    35    32    26
 C     1.25590  -2.36090  -1.09120    34    35    36    40
 C     2.58610  -2.07550  -0.82440    35    33    34    28
 C     0.47350  -2.85830  -0.02050    36    50    29    34
 C     0.70450   2.09540  -1.84960    37    22    19    38
 C     0.13350   0.91130  -2.37650    38    37    46    31
 C    -0.91070  -1.63910  -1.96060    39    40    45    49
 C     0.48100  -1.51200  -1.98040    40    39    31    34
 C    -3.76350  -0.03980  -0.99290    41    44    23    42
 C    -3.25900   1.22010  -0.79500    42    41    43    25
 C    -2.12890   1.71170  -1.51210    43    21    42    46
 C    -2.98930  -0.91570  -1.65220    44    41    47    45
 C    -1.78700  -0.57140  -2.21390    45    44    46    39
 C    -1.30170   0.74560  -2.25860    46    45    38    43
 C    -2.89100  -2.07550  -0.95160    47    49    44    48
 C    -3.49490  -1.88080   0.26790    48    23    47    52
 C    -1.61480  -2.51360  -1.10680    49    47    50    39
 C    -0.88210  -2.88430  -0.00910    50    36    49    51
 C    -1.35730  -2.42900   1.23210    51    52     7    50
 C    -2.59490  -1.85300   1.31830    52    51    48    15
