    52
C52-C1-201                                                                      
 C    -3.40590  -1.14400   0.86280     1    32     2     6
 C    -3.64380  -0.10360  -0.00780     2     3     1    14
 C    -3.36880   1.17680   0.36350     3     2     7     4
 C    -2.52660   1.35860   1.50640     4    11     5     3
 C    -1.92830   0.27900   2.19000     5     6     4    10
 C    -2.44330  -0.98810   1.85890     6     1    35     5
 C    -2.92830   2.12320  -0.53050     7     8     3    12
 C    -2.11720   2.98890   0.03760     8     7    16    11
 C     0.25650  -0.78490   2.52900     9    48    34    10
 C    -0.52710   0.41250   2.55040    10     9    51     5
 C    -1.79750   2.48430   1.23210    11     8    52     4
 C    -2.23620   1.63210  -1.63940    12    13     7    17
 C    -2.33550   0.28830  -2.00530    13    12    15    14
 C    -3.17960  -0.56970  -1.26640    14    20    13     2
 C    -1.13420  -0.27470  -2.48110    15    30    18    13
 C    -0.97440   3.18400  -0.59170    16     8    45    17
 C    -0.98320   2.32590  -1.67440    17    16    29    12
 C    -0.79030  -1.61010  -2.19300    18    19    21    15
 C    -1.63110  -2.36800  -1.43710    19    18    20    37
 C    -2.86750  -1.89970  -1.07510    20    32    19    14
 C     0.58110  -1.69460  -2.09950    21    18    27    22
 C     1.24990  -2.43970  -1.08450    22    23    21    36
 C     2.53880  -1.98280  -0.75700    23    25    22    40
 C     3.98750  -0.26970  -0.64690    24    25    39    44
 C     3.16200  -0.95150  -1.45160    25    24    26    23
 C     2.35680  -0.08710  -2.13640    26    27    25    31
 C     1.10910  -0.46310  -2.49070    27    26    30    21
 C     1.47390   2.06730  -1.47870    28    31    29    47
 C     0.20980   1.74880  -2.11280    29    17    30    28
 C     0.06660   0.42930  -2.58990    30    27    15    29
 C     2.59130   1.20200  -1.64210    31    44    26    28
 C    -3.08890  -2.25970   0.18440    32    20    33     1
 C    -1.99250  -2.82850   0.67590    33    32    35    37
 C    -0.27400  -1.96490   2.02780    34    35     9    38
 C    -1.59140  -2.09530   1.75780    35    34    33     6
 C     0.34870  -2.93390  -0.08770    36    37    38    22
 C    -1.03770  -3.00740  -0.32190    37    33    36    19
 C     0.73170  -2.52680   1.22760    38    41    34    36
 C     3.84880  -0.73050   0.61400    39    24    42    40
 C     2.96480  -1.80330   0.57660    40    41    39    23
 C     1.93010  -1.90080   1.49060    41    38    40    48
 C     3.44630   0.34740   1.35220    42    49    39    43
 C     3.32290   1.42750   0.51890    43    44    46    42
 C     3.61910   1.04300  -0.73010    44    43    24    31
 C     0.10460   3.08940   0.24440    45    16    47    52
 C     2.20500   2.14150   0.83350    46    43    47    50
 C     1.36270   2.68810  -0.15240    47    45    46    28
 C     1.62470  -0.79380   2.31000    48    49     9    41
 C     2.34840   0.36220   2.15030    49    42    48    50
 C     1.59730   1.51340   1.95430    50    49    51    46
 C     0.22110   1.60250   2.18600    51    52    50    10
 C    -0.45780   2.56330   1.45240    52    11    51    45
