    52
C52-C2-244                                                                      
 C    -3.44510   0.69740   0.96810     1     5     3     2
 C    -3.06200   1.77700   0.17890     2    27    10     1
 C    -3.62010  -0.50340   0.34020     3     1     8     6
 C    -1.79990  -0.21880   2.46410     4     5    34     7
 C    -2.60250   0.80550   2.03710     5    28     1     4
 C    -2.80150  -1.58980   0.79910     6    14     7     3
 C    -1.82770  -1.49160   1.82870     7     6     4    13
 C    -3.59440  -0.58660  -1.04960     8    11     3     9
 C    -2.91280   0.42680  -1.74300     9    10     8    18
 C    -2.66010   1.61460  -1.11750    10     9     2    16
 C    -2.99390  -1.69950  -1.40490    11     8    21    14
 C     0.56050  -1.66290   2.36160    12    48    33    13
 C    -0.57450  -2.20220   1.69750    13    12     7    51
 C    -2.48760  -2.31190  -0.33170    14    11    52     6
 C     0.86420   2.17730  -1.79970    15    20    17    24
 C    -1.42640   2.24890  -1.25540    16    10    17    26
 C    -0.41460   1.75030  -2.09710    17    15    16    19
 C    -1.85570  -0.16320  -2.47410    18    21    19     9
 C    -0.58910   0.42140  -2.65320    19    18    17    22
 C     1.97010   1.48150  -2.17430    20    32    15    23
 C    -1.97540  -1.51260  -2.23020    21    11    45    18
 C     0.58960  -0.44700  -2.64740    22    23    47    19
 C     1.85470   0.13940  -2.44540    23    20    22    43
 C     1.21310   2.75360  -0.54620    24    29    25    15
 C     0.24730   2.85650   0.43300    25    24    26    30
 C    -1.09250   2.83000   0.00250    26    27    25    16
 C    -2.11910   2.50310   0.82520    27    28     2    26
 C    -1.84400   1.92700   1.99110    28    27    31     5
 C     2.49160   2.31990  -0.31700    29    32    36    24
 C     0.56530   2.21740   1.72160    30    31    37    25
 C    -0.57360   1.69040   2.39540    31    28    34    30
 C     3.00520   1.69100  -1.37630    32    44    20    29
 C     0.56520  -0.33860   2.81750    33    34    12    35
 C    -0.57380   0.36090   2.82800    34    33    31     4
 C     1.79000   0.24140   2.45910    35    38    33    37
 C     2.80690   1.61260   0.80990    36    29    37    39
 C     1.82910   1.51530   1.83320    37    36    35    30
 C     2.59350  -0.76600   2.00830    38    48    35    41
 C     3.62530   0.52360   0.33750    39    41    44    36
 C     3.06740  -1.78330   0.16690    40    49    42    41
 C     3.44270  -0.69170   0.94150    41    38    39    40
 C     2.68090  -1.62960  -1.13800    42    43    40    46
 C     2.94910  -0.43950  -1.75540    43    42    44    23
 C     3.62450   0.57120  -1.06090    44    32    39    43
 C    -0.87540  -2.20960  -1.83100    45    21    47    52
 C     1.43430  -2.26680  -1.26710    46    42    47    50
 C     0.41470  -1.78320  -2.10790    47    45    46    22
 C     1.82780  -1.88320   1.93820    48    49    12    38
 C     2.10720  -2.49820   0.79450    49    48    50    40
 C     1.08080  -2.84750  -0.01170    50    49    51    46
 C    -0.26060  -2.86110   0.42030    51    52    50    13
 C    -1.22020  -2.76310  -0.56050    52    14    51    45
