    52
C52-C1-218                                                                      
 C    -1.77370  -2.76990  -0.35480     1     2     3    25
 C    -0.47530  -3.06330  -0.45350     2     1    36    12
 C    -2.14880  -2.02730  -1.44720     3     1     4     6
 C    -3.06680  -1.01850  -1.22670     4     3     5     7
 C    -3.60900  -0.82210   0.03210     5    14     4    24
 C    -0.96130  -1.84530  -2.16520     6     9    12     3
 C    -2.77970   0.25760  -1.72860     7     4     8    13
 C    -1.58610   0.43920  -2.44160     8    17     9     7
 C    -0.67940  -0.59230  -2.66480     9     6     8    52
 C     2.15630  -2.39620  -0.38230    10    48    35    11
 C     1.43740  -2.11630  -1.58740    11    12    10    51
 C     0.10100  -2.54110  -1.59180    12     2     6    11
 C    -3.20930   1.21100  -0.78990    13    14    15     7
 C    -3.71070   0.51130   0.28360    14     5    20    13
 C    -2.38050   2.30730  -0.57180    15    13    16    18
 C    -1.27290   2.55410  -1.39500    16    22    17    15
 C    -0.84070   1.59470  -2.29430    17     8    16    44
 C    -1.95410   2.57310   0.75320    18    21    19    15
 C    -2.24980   1.67530   1.75100    19    20    18    32
 C    -3.17130   0.71430   1.51730    20    23    19    14
 C    -0.68300   2.99930   0.64160    21    22    18    33
 C    -0.28080   3.08830  -0.63610    22    21    47    16
 C    -2.71620  -0.46680   1.97300    23    20    24    26
 C    -3.04460  -1.49120   1.12750    24    25    23     5
 C    -2.09000  -2.43680   0.94150    25    24     1    31
 C    -1.44740  -0.29290   2.51540    26    23    32    30
 C     2.53780   0.90320   1.77420    27    37    43    28
 C     1.28030   0.55150   2.38540    28    34    27    29
 C     0.94250  -0.88370   2.41560    29    39    30    28
 C    -0.44420  -1.27420   2.40190    30    26    31    29
 C    -0.83640  -2.39750   1.59400    31    36    25    30
 C    -1.13860   1.07490   2.41830    32    26    34    19
 C     0.38050   2.58620   1.39940    33    21    41    34
 C     0.20300   1.49770   2.28920    34    32    33    28
 C     1.41760  -2.62340   0.80290    35    36    39    10
 C     0.12410  -2.94610   0.75280    36    35     2    31
 C     3.47150  -0.00860   1.34100    37    38    40    27
 C     3.06630  -1.26820   1.26280    38    37    39    48
 C     1.89510  -1.72090   1.74700    39    38    35    29
 C     3.99470   0.35190   0.13530    40    42    49    37
 C     1.49940   2.66940   0.58130    41    43    33    47
 C     3.38910   1.48410  -0.21180    42    40    43    45
 C     2.60140   1.94010   0.81830    43    41    42    27
 C     0.52710   1.28050  -2.42670    44    17    52    46
 C     2.71450   1.27110  -1.42520    45    46    42    50
 C     1.54250   1.96300  -1.71400    46    45    47    44
 C     1.04640   2.84790  -0.73950    47    22    46    41
 C     3.23780  -1.65750  -0.04610    48    49    10    38
 C     3.72500  -0.61710  -0.75830    49    40    48    50
 C     2.86990  -0.11650  -1.72140    50    49    51    45
 C     1.75610  -0.84470  -2.21540    51    52    50    11
 C     0.63150  -0.10560  -2.66280    52     9    44    51
