    52
C52-C2-339                                                                      
 C     3.80560  -0.03330  -0.17940     1    35     3     2
 C     3.25040   0.15030  -1.45190     2    27     8     1
 C     3.33860  -1.18010   0.44940     3     6     1     5
 C     2.37210   0.15040   2.21440     4    34     5    50
 C     2.60200  -1.10000   1.67230     5     4    12     3
 C     2.62930  -2.11260  -0.25420     6     9     3     7
 C     2.12200  -1.90980  -1.53170     7     8     6    18
 C     2.38340  -0.69600  -2.09660     8     7     2    16
 C     1.67100  -2.68540   0.46880     9     6    11    12
 C    -0.60820  -3.01370   0.27600    10    11    23    13
 C     0.61130  -3.01560  -0.29010    11    10     9    18
 C     1.55760  -2.03270   1.68150    12     9     5    14
 C    -0.82550  -2.43380   1.55280    13    48    10    14
 C     0.26550  -1.79190   2.21100    14    12    13    52
 C    -1.05420   0.45090  -2.62850    15    17    22    24
 C     1.30250   0.04150  -2.59730    16     8    17    26
 C    -0.00180  -0.48150  -2.71440    17    15    16    20
 C     0.82770  -2.44020  -1.56080    18     7    11    20
 C    -1.56070  -2.02970  -1.68330    19    23    21    20
 C    -0.26910  -1.80660  -2.21480    20    19    18    17
 C    -2.60720  -1.09430  -1.68140    21    22    19    44
 C    -2.36980   0.15600  -2.22000    22    33    21    15
 C    -1.68570  -2.66850  -0.46400    23    49    10    19
 C    -0.78870   1.75720  -2.13140    24    29    25    15
 C     0.47030   2.17080  -1.74180    25    24    26    30
 C     1.54460   1.37910  -2.17810    26    27    25    16
 C     2.74400   1.39860  -1.54250    27    28     2    26
 C     2.96190   2.03360  -0.39390    28    27    35    31
 C    -1.90920   2.11420  -1.47510    29    24    33    36
 C     0.60390   2.78650  -0.41720    30    31    37    25
 C     1.85870   2.61570   0.19710    31    38    28    30
 C    -3.62740   1.17430  -0.44980    32    33    46    39
 C    -2.92860   1.23980  -1.60490    33    29    32    22
 C     2.92950   1.24390   1.59830    34    35    38     4
 C     3.63710   1.18890   0.45290    35    34    28     1
 C    -1.85500   2.60970  -0.19670    36    29    39    37
 C    -0.59280   2.78190   0.40980    37    36    30    42
 C     1.90690   2.12890   1.47720    38    43    34    31
 C    -2.94820   2.02620   0.40030    39    40    36    32
 C    -2.74230   1.39360   1.55440    40    39    45    41
 C    -1.54070   1.38920   2.18330    41    40    42    51
 C    -0.46290   2.17880   1.74610    42    43    41    37
 C     0.79360   1.76230   2.14000    43    38    42    50
 C    -3.34280  -1.18800  -0.45620    44    49    46    21
 C    -3.25770   0.14650   1.46250    45    40    47    46
 C    -3.79480  -0.03520   0.18860    46    32    45    44
 C    -2.39110  -0.70800   2.09880    47    48    45    51
 C    -2.12720  -1.92040   1.52450    48    47    49    13
 C    -2.65340  -2.12280   0.26590    49    23    44    48
 C     1.06130   0.45820   2.62880    50     4    52    43
 C    -1.30740   0.04450   2.59340    51    47    52    41
 C     0.00010  -0.46800   2.71130    52    51    50    14
