    52
C52-C1-54                                                                       
 C    -3.82910  -0.30980   1.06340     1    12    34     4
 C    -1.38190  -1.15470   2.20360     2    32     6     3
 C    -2.03550  -1.95230   1.23210     3     4     5     2
 C    -3.24520  -1.51590   0.66830     4     1    14     3
 C    -1.07610  -2.53280   0.38540     5     9    15     3
 C     0.00820  -1.16090   2.40340     6     8     2    41
 C     2.24530  -1.69860   1.63480     7     8    51    11
 C     0.89340  -2.01560   1.74940     8     7     6     9
 C     0.27820  -2.61160   0.63750     9     5    46     8
 C     3.79400  -0.16110   1.15190    10    42    52    11
 C     2.70130  -0.39290   1.97090    11    10    40     7
 C    -4.35430   0.28040  -0.05850    12    13    17     1
 C    -4.11010  -0.45850  -1.13670    13    12    14    26
 C    -3.44170  -1.56340  -0.71680    14    13    16     4
 C    -1.20840  -2.34580  -0.99520    15    16    27     5
 C    -2.31690  -1.75190  -1.47570    16    15    14    25
 C    -3.61420   1.42000  -0.16110    17    12    18    20
 C    -2.90570   1.67410   0.97550    18    17    19    34
 C    -1.69960   2.31120   0.92480    19    18    35    22
 C    -2.87470   1.37720  -1.35470    20    26    21    17
 C    -1.58680   1.90370  -1.46500    21    20    22    30
 C    -1.08110   2.55640  -0.30240    22    24    19    21
 C     1.16160   2.46020  -1.04180    23    39    24    31
 C     0.25450   2.73640  -0.08100    24    23    22    36
 C    -2.11460  -0.60590  -2.25630    25    26    16    29
 C    -3.20140   0.16980  -1.93240    26    13    25    20
 C     0.05280  -2.14200  -1.49070    27    15    46    28
 C     0.35520  -1.02990  -2.33150    28    27    49    29
 C    -0.79580  -0.16120  -2.51460    29    25    30    28
 C    -0.55170   1.23710  -2.23280    30    31    29    21
 C     0.78840   1.60440  -2.08250    31    30    23    50
 C    -1.87050   0.13680   2.41360    32    34    33     2
 C    -0.72590   0.91460   2.52990    33    35    41    32
 C    -3.02770   0.54310   1.78500    34     1    32    18
 C    -0.63980   2.07480   1.78580    35    36    33    19
 C     0.57870   2.42100   1.25160    36    35    24    37
 C     1.82470   1.82780   1.55810    37    36    38    40
 C     2.82900   1.91140   0.56610    38    42    39    37
 C     2.43660   2.19850  -0.72640    39    23    45    38
 C     1.73510   0.58440   2.29500    40    41    11    37
 C     0.43470   0.16180   2.64380    41    33     6    40
 C     3.80730   0.96350   0.39640    42    10    38    43
 C     3.93430   0.62900  -0.94320    43    45    44    42
 C     3.88760  -0.72560  -0.95030    44    43    52    48
 C     3.00490   1.33990  -1.59800    45    43    39    50
 C     0.98350  -2.55110  -0.56150    46    47    27     9
 C     2.28900  -2.23170  -0.58960    47    46    51    48
 C     2.72970  -1.28750  -1.53030    48    47    44    49
 C     1.71810  -0.58280  -2.27580    49    50    28    48
 C     1.92600   0.81010  -2.29030    50    45    31    49
 C     3.03910  -2.08590   0.55700    51    52    47     7
 C     3.99600  -1.21500   0.31530    52    51    10    44
