    52
C52-C1-342                                                                      
 C     1.49980  -3.07030  -0.71730     1     4    29     2
 C     2.03030  -2.05380  -1.45400     2     1     3    14
 C     2.95680  -1.22420  -0.87270     3     2     7    18
 C     0.19420  -3.20410  -1.02750     4     1    32    13
 C     3.12440   2.00210   0.16050     5     6    10    26
 C     3.55470   0.78400  -0.13980     6     5    17     7
 C     3.04520   0.11600  -1.24460     7     6     3     8
 C     2.01410   0.71350  -2.04530     8     9     7    16
 C     1.68310   2.05240  -1.66270     9    10    49     8
 C     2.28080   2.70710  -0.59540    10     5    27     9
 C    -2.32060  -2.12240  -0.92900    11    42    31    12
 C    -1.43810  -1.72560  -1.97410    12    13    52    11
 C    -0.15650  -2.27220  -1.98370    13     4    12    14
 C     1.00830  -1.51490  -2.24490    14     2    16    13
 C    -0.36970   0.39190  -2.56850    15    48    52    16
 C     0.94680  -0.13240  -2.51360    16    14    15     8
 C     3.38370  -0.05090   0.91470    17    18     6    20
 C     3.16870  -1.31750   0.53300    18    17    19     3
 C     2.29590  -2.09480   1.25530    19    29    18    25
 C     2.53310   0.59740   1.80720    20    26    17    24
 C    -1.04860   2.52520   1.34140    21    38    22    51
 C     0.14390   2.05330   1.92500    22    28    21    23
 C     0.14220   0.67060   2.46200    23    24    40    22
 C     1.40380  -0.05840   2.34920    24    20    25    23
 C     1.35720  -1.45360   2.12010    25    36    24    19
 C     2.44520   1.87010   1.34600    26    28    20     5
 C     1.26840   3.25480   0.12260    27    50    10    28
 C     1.30180   2.58660   1.35020    28    26    27    22
 C     1.59560  -3.07290   0.63560    29    30    19     1
 C     0.34370  -3.14950   1.11560    30    29    32    36
 C    -1.77840  -2.79560   0.18710    31    32    34    11
 C    -0.56370  -3.36380   0.10540    32    31     4    30
 C    -3.12540  -1.21020   0.88290    33    37    34    42
 C    -2.13100  -2.01760   1.30850    34    33    31    35
 C    -1.09280  -1.50830   2.17000    35    36    34    40
 C     0.13990  -2.13970   2.03840    36    30    35    25
 C    -3.30040   0.03440   1.29940    37    33    39    44
 C    -2.19770   1.84410   1.46590    38    21    39    47
 C    -2.29060   0.60780   2.02640    39    38    37    40
 C    -1.12350  -0.07640   2.44450    40    39    35    23
 C    -3.47500   0.05260  -0.88280    41    42    44    43
 C    -3.24240  -1.22920  -0.46880    42    33    11    41
 C    -2.52520   0.49960  -1.80110    43    41    45    52
 C    -3.67380   0.83410   0.23860    44    47    37    41
 C    -1.94700   1.77050  -1.65730    45    48    43    46
 C    -2.21820   2.59800  -0.54610    46    47    51    45
 C    -3.01450   1.99490   0.37510    47    44    46    38
 C    -0.65120   1.69280  -2.15410    48    49    45    15
 C     0.35700   2.49320  -1.67340    49    48     9    50
 C     0.10640   3.31150  -0.55500    50    27    51    49
 C    -1.09970   3.16180   0.06000    51    50    46    21
 C    -1.54280  -0.35890  -2.32510    52    43    15    12
