    52
C52-C1-160                                                                      
 C     2.88960  -1.90950  -0.33130     1    15     3     2
 C     2.30360  -2.11350   0.94410     2     4     6     1
 C     3.65520  -0.78770  -0.59310     3     1    32    21
 C     2.45980  -1.10680   1.86130     4    33     2     5
 C     1.28570  -0.54250   2.39770     5     8    41     4
 C     1.05220  -2.68570   0.78130     6    16     2     7
 C    -0.09310  -2.31940   1.50910     7    20     6     8
 C     0.00610  -1.10800   2.30670     8     5     9     7
 C    -1.14360  -0.24340   2.39650     9    11     8    13
 C    -3.42050  -0.00650   1.48040    10    14    11    49
 C    -2.39140  -0.75660   1.97380    11    19    10     9
 C    -2.00340   1.83270   1.50710    12    14    42    13
 C    -0.92970   1.19070   2.16810    13    12    40     9
 C    -3.25490   1.30290   1.27710    14    10    52    12
 C     1.90830  -2.29620  -1.18940    15    16     1    23
 C     0.88550  -2.88110  -0.56510    16    15    18     6
 C    -1.43490  -2.66980  -0.51290    17    18    46    20
 C    -0.28210  -2.69890  -1.20690    18    16    17    30
 C    -2.45130  -1.88350   1.20960    19    20    11    50
 C    -1.33310  -2.53380   0.88820    20    19     7    17
 C     3.10230   0.06220  -1.60080    21    22    24     3
 C     3.28950   1.33150  -1.06450    22    31    27    21
 C     1.36260  -1.52740  -2.18890    23    15    24    30
 C     1.92540  -0.26160  -2.32580    24    23    25    21
 C     0.94050   0.72780  -2.44550    25    26    24    28
 C     1.09020   1.92350  -1.74170    26    27    37    25
 C     2.19250   2.15600  -0.99600    27    26    22    34
 C    -0.43750   0.47380  -2.54550    28    43    25    29
 C    -1.02480  -0.80920  -2.44830    29    30    28    47
 C    -0.03130  -1.77820  -2.21750    30    18    29    23
 C     3.91330   1.31020   0.11650    31    22    35    32
 C     4.09020   0.00620   0.45790    32    31    33     3
 C     3.36970  -0.12040   1.62160    33    36     4    32
 C     2.01400   2.52590   0.35250    34    35    27    39
 C     3.09490   1.95120   0.99070    35    36    31    34
 C     2.76150   1.05390   1.93170    36    35    33    41
 C    -0.15710   2.32090  -1.36470    37    26    43    38
 C    -0.40960   2.74530  -0.02890    38    42    39    37
 C     0.68430   2.56010   0.85920    39    38    34    40
 C     0.39640   1.66700   1.99190    40    41    13    39
 C     1.48080   0.85190   2.35690    41    36    40     5
 C    -1.72960   2.56260   0.33530    42    38    45    12
 C    -1.11710   1.55130  -2.00580    43    44    28    37
 C    -2.39630   1.48270  -1.58200    44    43    45    48
 C    -2.79700   2.25090  -0.51000    45    52    44    42
 C    -2.55890  -1.94830  -0.91260    46    50    17    47
 C    -2.35280  -0.89660  -1.87190    47    48    46    29
 C    -3.12130   0.27970  -1.56530    48    44    51    47
 C    -4.04910  -0.56980   0.37980    49    50    51    10
 C    -3.34600  -1.69640   0.19290    50    49    19    46
 C    -4.09250   0.43120  -0.54430    51    52    49    48
 C    -3.79710   1.60210   0.07420    52    45    14    51
