    52
C52-C1-9                                                                        
 C     0.43670   2.75190  -0.08890     1     2    10    42
 C    -0.86210   2.88750  -0.27740     2     1    25     8
 C    -2.79870   2.17030  -0.78910     3     4     8    24
 C    -3.53970   1.11570  -1.03850     4     3     7    17
 C    -2.82440  -2.07730  -0.94050     5     6    20    16
 C    -3.54180  -0.98840  -1.16340     6     5     7    18
 C    -2.98100   0.09680  -1.76570     7     6     4    13
 C    -1.54760   2.34100  -1.31440     8     2     3    12
 C     2.55800   1.97510  -0.62790     9    50    10    40
 C     1.27060   2.21380  -1.04150    10     9     1    11
 C     0.58370   1.31890  -1.96700    11    12    14    10
 C    -0.85130   1.33650  -2.03500    12     8    11    13
 C    -1.60540   0.11770  -2.19140    13     7    12    15
 C     1.34810   0.11510  -2.15420    14    51    11    52
 C    -0.83120  -1.08870  -2.00620    15    16    52    13
 C    -1.50790  -2.11540  -1.30440    16     5    36    15
 C    -4.13670   0.62630   0.11080    17    18     4    23
 C    -4.24090  -0.70520   0.00830    18    17    19     6
 C    -3.66680  -1.54050   0.92270    19    20    18    21
 C    -3.03050  -2.57040   0.30290    20    37     5    19
 C    -2.63990  -0.96440   1.69130    21    26    19    22
 C    -2.43330   0.42350   1.84940    22    21    23    29
 C    -3.35680   1.25740   1.10100    23    24    17    22
 C    -2.79030   2.37270   0.56360    24    25    23     3
 C    -1.57590   2.77810   0.86140    25    24     2    30
 C    -1.51610  -1.79840   1.63040    26    27    37    21
 C    -0.20730  -1.40080   1.87530    27    26    33    28
 C     0.06920  -0.03400   2.24110    28    27    32    29
 C    -1.06580   0.87400   2.13430    29    30    28    22
 C    -0.69330   2.17150   1.68990    30    25    42    29
 C     2.48680  -0.51790   1.85610    31    43    35    32
 C     1.44610   0.39560   2.10660    32    31    41    28
 C     0.84320  -2.11590   1.21210    33    35    27    38
 C     3.13500  -2.04880   0.41550    34    45    35    49
 C     2.14920  -1.75680   1.33390    35    33    34    31
 C    -0.86300  -2.77530  -0.26050    36    38    37    16
 C    -1.79870  -2.82690   0.73780    37    20    36    26
 C     0.45960  -2.60240  -0.08790    38    36    47    33
 C     3.92120   0.95170   0.72050    39    43    40    44
 C     2.85020   1.80430   0.74890    40    39    41     9
 C     1.71850   1.69830   1.57580    41    42    40    32
 C     0.60580   2.40150   1.26600    42    41    30     1
 C     3.73590  -0.25040   1.32800    43    39    45    31
 C     4.43700   0.67230  -0.51710    44    46    50    39
 C     4.22740  -1.24120   0.52150    45    46    34    43
 C     4.54450  -0.67090  -0.67320    46    44    45    48
 C     1.27460  -2.04970  -1.11130    47    49    38    52
 C     3.44720  -0.98290  -1.44710    48    49    46    51
 C     2.62530  -1.90920  -0.86120    49    48    47    34
 C     3.41030   1.14650  -1.28770    50     9    44    51
 C     2.73380   0.11090  -1.89020    51    50    48    14
 C     0.58660  -1.09010  -1.95980    52    15    14    47
