    52
C52-C1-19                                                                       
 C    -1.11820   2.27790  -1.25210     1     2     3    29
 C    -2.38410   2.41330  -0.78070     2     8     1    24
 C     0.01730   2.48940  -0.46840     3     1     4     9
 C     1.26030   2.08880  -0.96550     4     6     3    42
 C     3.58870   1.55070  -0.36190     5    43    52     6
 C     2.36130   2.10850  -0.10950     6     5     4    16
 C    -3.65750   1.68210   0.77360     7    11     8    26
 C    -2.63700   2.53120   0.53190     8     2     7    10
 C    -0.21960   2.41140   0.97320     9    10    17     3
 C    -1.55980   2.26320   1.34070    10     8     9    15
 C    -3.22430   0.80120   1.67070    11     7    12    15
 C    -3.50340  -0.46660   1.24800    12    11    13    21
 C    -2.59500  -1.44490   1.58770    13    14    12    20
 C    -2.35620  -2.45660   0.71120    14    22    35    13
 C    -1.92880   1.13290   2.09010    15    19    11    10
 C     2.12410   1.89680   1.25890    16    49    17     6
 C     0.81660   1.76310   1.68540    17    16     9    18
 C     0.45020   0.50100   2.31750    18    19    51    17
 C    -0.93790   0.19480   2.39440    19    15    20    18
 C    -1.33980  -1.13260   2.16250    20    46    19    13
 C    -4.01360  -0.34390  -0.09120    21    26    23    12
 C    -2.71900  -2.31980  -0.58100    22    14    23    37
 C    -3.39500  -1.21960  -1.01430    23    22    21    27
 C    -3.21250   1.48310  -1.33070    24     2    25    26
 C    -2.41320   0.68790  -2.09720    25    24    27    29
 C    -4.05430   1.01810  -0.35520    26     7    24    21
 C    -2.52170  -0.67120  -1.99390    27    25    28    23
 C    -1.35560  -1.43530  -2.08650    28    37    27    31
 C    -1.11260   1.20920  -2.15700    29    30     1    25
 C     0.07280   0.49460  -2.36350    30    29    42    31
 C    -0.05150  -0.94420  -2.31430    31    28    32    30
 C     1.09090  -1.64090  -1.78590    32    34    31    39
 C     3.40630  -1.41840  -1.00220    33    44    40    34
 C     2.34130  -1.05330  -1.81240    34    32    33    41
 C    -1.04070  -2.75910   0.78190    35    14    46    36
 C    -0.48040  -2.86160  -0.45900    36    37    35    39
 C    -1.53270  -2.48230  -1.23860    37    28    36    22
 C     1.68700  -2.25480   0.45460    38    40    39    47
 C     0.83100  -2.52810  -0.67010    39    36    38    32
 C     2.96500  -1.78340   0.24540    40    33    48    38
 C     2.49040   0.32180  -1.99370    41    43    34    42
 C     1.31390   1.07150  -2.00070    42    41    30     4
 C     3.66600   0.62400  -1.35590    43     5    44    41
 C     4.35270  -0.44380  -0.86100    44    45    43    33
 C     4.61660  -0.16600   0.44450    45    52    44    48
 C    -0.37440  -2.02080   1.70200    46    35    47    20
 C     0.97240  -1.75460   1.62130    47    46    51    38
 C     3.63870  -0.92050   1.08060    48    40    50    45
 C     3.19300   1.11450   1.64120    49    52    50    16
 C     2.78890  -0.17640   1.88040    50    49    48    51
 C     1.47120  -0.52030   2.15310    51    50    47    18
 C     4.22040   1.09110   0.75530    52    45    49     5
