    52
C52-C1-194                                                                      
 C    -3.09070   1.82930   0.16170     1    15     3     2
 C    -2.33450   1.83770   1.37220     2     4     6     1
 C    -3.80440   0.70060  -0.21580     3    34     1    23
 C    -2.31510   0.68520   2.12170     4    35     2     5
 C    -1.05420   0.17750   2.52590     5    37     8     4
 C    -1.13460   2.51680   1.21010     6    16     2     7
 C     0.10470   2.16040   1.76820     7    20     6     8
 C     0.17820   0.86160   2.42980     8     5     9     7
 C     1.41170   0.09510   2.35340     9    11     8    13
 C     3.58770   0.12190   1.19270    10    14    11    49
 C     2.57270   0.75200   1.86080    11    19    10     9
 C     2.37110  -1.83970   1.23260    12    14    42    13
 C     1.31440  -1.33770   2.05200    13    39    12     9
 C     3.52040  -1.17440   0.88090    14    10    52    12
 C    -2.20780   2.40160  -0.71680    15    16     1    21
 C    -1.13650   2.90290  -0.11210    16    15    18     6
 C     1.17210   2.77810  -0.32050    17    18    43    20
 C    -0.03510   2.82310  -0.88270    18    17    16    24
 C     2.43550   1.93770   1.20430    19    20    11    50
 C     1.25610   2.53060   1.06400    20    19     7    17
 C    -1.75080   1.79930  -1.87100    21    22    15    24
 C    -2.30900   0.60330  -2.15630    22    21    23    31
 C    -3.36370   0.12010  -1.41170    23    25    22     3
 C    -0.37060   2.00240  -1.95530    24    18    21    33
 C    -3.24000  -1.21110  -1.26500    25    23    26    27
 C    -3.57360  -1.55100   0.00960    26    25    28    34
 C    -2.04860  -1.57840  -1.84660    27    30    25    31
 C    -2.62990  -2.23100   0.75130    28    36    29    26
 C    -1.49120  -2.72170   0.14840    29    28    38    30
 C    -1.20760  -2.44050  -1.19910    30    48    27    29
 C    -1.42560  -0.45000  -2.42530    31    22    27    32
 C    -0.00330  -0.29430  -2.53390    32    31    47    33
 C     0.58660   1.02490  -2.35380    33    24    44    32
 C    -3.90210  -0.36700   0.65420    34    35     3    26
 C    -3.12480  -0.35600   1.77500    35    36     4    34
 C    -2.37860  -1.47140   1.85980    36    35    28    37
 C    -1.11660  -1.21790   2.34240    37    36    39     5
 C    -0.24290  -2.71440   0.77260    38    40    29    39
 C     0.01860  -1.91040   1.92960    39    37    13    38
 C     0.74770  -2.78900  -0.18110    40    42    38    48
 C     2.85510  -2.02870  -0.93290    41    52    42    46
 C     2.03290  -2.50720   0.04540    42    40    41    12
 C     2.24910   2.14790  -0.91650    43    50    17    44
 C     1.95660   1.15050  -1.91590    44    45    43    33
 C     2.81730   0.02230  -1.81890    45    46    51    44
 C     2.17670  -1.23670  -1.86710    46    47    41    45
 C     0.81680  -1.40470  -2.14020    47    46    48    32
 C     0.14210  -2.40360  -1.38140    48    30    40    47
 C     3.97380   0.80720   0.04540    49    50    51    10
 C     3.18190   1.87550   0.05440    50    49    19    43
 C     3.94330  -0.10190  -0.96650    51    52    49    45
 C     3.86700  -1.32370  -0.42830    52    41    51    14
