    52
C52-Cs-221                                                                      
 C     2.66640   2.30810  -0.26690     1     2     4    30
 C     3.30290   1.14660   0.07090     2     1     3    11
 C     3.03380   0.66480   1.33590     3     6    19     2
 C     1.94130   2.29760  -1.43210     4    32     9     1
 C     3.30000  -1.15960   0.07430     5     7     6    11
 C     3.03280  -0.66420   1.33810     6     3    15     5
 C     2.65670  -2.31790  -0.26110     7     5     8    13
 C     1.94620  -2.29650  -1.43410     8    16    12     7
 C     1.76130   1.18220  -2.20400     9     4    10    49
 C     2.46760  -0.00240  -1.93530    10     9    12    11
 C     3.29580  -0.00490  -0.75620    11     2     5    10
 C     1.75570  -1.18420  -2.20490    12     8    10    52
 C     1.76790  -2.89900   0.63100    13    17    14     7
 C     1.36180  -2.25570   1.76900    14    15    13    21
 C     2.00740  -1.11970   2.14690    15    14     6    20
 C     0.76220  -2.92730  -1.28200    16    17    46     8
 C     0.64470  -3.30190  -0.00130    17    16    13    28
 C     1.36110   2.25470   1.74270    18    19    30    26
 C     2.00590   1.12110   2.13580    19    18     3    20
 C     1.29950   0.00220   2.58670    20    15    19    24
 C    -0.03730  -2.29330   1.81050    21    14    23    28
 C    -2.12900  -1.17940   1.90900    22    37    23    27
 C    -0.80240  -1.23090   2.34210    23    22    21    24
 C    -0.11730   0.00870   2.68730    24    20    25    23
 C    -0.80140   1.24710   2.35110    25    38    26    24
 C    -0.03560   2.29990   1.80870    26    18    25    35
 C    -2.61880  -1.91450   0.78010    27    45    29    22
 C    -0.49950  -3.00700   0.66760    28    17    29    21
 C    -1.68250  -2.62510   0.01740    29    27    28    48
 C     1.76180   2.90680   0.60650    30    31    18     1
 C     0.64240   3.33040  -0.00520    31    32    30    35
 C     0.76000   2.93870  -1.28120    32    31    43     4
 C    -2.59700   1.88740   0.78730    33    39    34    38
 C    -1.67440   2.62630   0.02900    34    35    33    42
 C    -0.49600   3.02340   0.67110    35    31    34    26
 C    -3.74460  -0.00930   0.96970    36    37    45    39
 C    -2.83260   0.00120   1.92520    37    36    38    22
 C    -2.12750   1.16970   1.93290    38    37    25    33
 C    -3.57130   1.09470   0.21360    39    40    36    33
 C    -3.34800   0.68000  -1.04930    40    39    41    44
 C    -2.31950   1.14160  -1.79430    41    40    42    50
 C    -1.53090   2.22910  -1.38850    42    43    41    34
 C    -0.23540   2.29500  -1.92290    43    32    42    49
 C    -3.36240  -0.68410  -1.03950    44    45    47    40
 C    -3.59580  -1.11660   0.21590    45    36    44    27
 C    -0.24220  -2.29980  -1.92580    46    16    48    52
 C    -2.32560  -1.13490  -1.79500    47    44    48    50
 C    -1.53980  -2.22350  -1.39510    48    47    46    29
 C     0.37870   1.18380  -2.54930    49    51    43     9
 C    -1.69090   0.00300  -2.36540    50    51    41    47
 C    -0.33590  -0.00260  -2.71140    51    52    49    50
 C     0.37790  -1.18660  -2.55210    52    51    46    12
