    52
C52-C2-362                                                                      
 C     3.31030   1.64720   0.33550     1     2     3    26
 C     3.60510   0.47670   0.87440     2     1    13     8
 C     2.26260   2.40160   0.77590     3     1    39     4
 C     1.33470   1.86930   1.72280     4     5     3    12
 C     0.03380   2.34630   1.61170     5     4    14     7
 C    -1.69520   2.91430   0.36020     6     7    48    42
 C    -0.39620   3.15840   0.52480     7     6    38     5
 C     3.88910  -0.43680  -0.12680     8     9     2    25
 C     3.47290  -1.61670   0.30270     9     8    19    10
 C     2.74270  -1.41230   1.43910    10    11    13     9
 C     1.65580  -2.20600   1.47350    11    10    20    17
 C     1.51350   0.51120   2.18390    12    13     4    16
 C     2.72700  -0.09870   1.77720    13    10     2    12
 C    -1.09200   1.63220   2.01720    14    48     5    15
 C    -1.02600   0.24390   2.31520    15    14    16    51
 C     0.31070  -0.33060   2.36510    16    15    17    12
 C     0.43370  -1.72680   1.96710    17    11    18    16
 C    -0.70500  -2.37680   1.46590    18    52    17    21
 C     2.67970  -2.41190  -0.42040    19     9    20    23
 C     1.72740  -3.00460   0.32750    20    22    19    11
 C    -0.59060  -3.22230   0.31760    21    37    22    18
 C     0.59300  -3.20480  -0.33530    22    20    21    28
 C     1.98390  -1.81750  -1.48210    23    28    19    24
 C     2.22820  -0.49770  -1.91680    24    23    25    31
 C     3.34860   0.15300  -1.27930    25    26     8    24
 C     3.22120   1.47480  -1.01670    26    27    25     1
 C     2.18630   2.18400  -1.40760    27    26    39    32
 C     0.70250  -2.35140  -1.46760    28    23    29    22
 C    -0.42870  -1.69190  -1.95690    29    35    28    30
 C    -0.29520  -0.30070  -2.36070    30    29    31    34
 C     1.04220   0.27430  -2.32390    31    32    30    24
 C     1.09800   1.66860  -2.05560    32    27    41    31
 C    -2.70440  -0.06920  -1.72870    33    36    43    34
 C    -1.49580   0.54270  -2.16750    34    33    40    30
 C    -1.63740  -2.16090  -1.43890    35    36    29    37
 C    -2.72200  -1.37400  -1.37670    36    35    33    45
 C    -1.74460  -2.98100  -0.31320    37    21    47    35
 C     0.40950   3.16420  -0.55910    38    39     7    41
 C     1.70450   2.92880  -0.38450    39    38    27     3
 C    -1.33960   1.91350  -1.73920    40    41    42    34
 C    -0.03200   2.38320  -1.65980    41    40    32    38
 C    -2.28440   2.42280  -0.79340    42    44     6    40
 C    -3.63220   0.48200  -0.86280    43    44    46    33
 C    -3.32500   1.66140  -0.35110    44    43    42    49
 C    -3.50540  -1.63840  -0.27660    45    46    47    36
 C    -3.91760  -0.43560   0.13180    46    45    43    50
 C    -2.71410  -2.43310   0.45130    47    45    37    52
 C    -2.17190   2.15520   1.37160    48    49     6    14
 C    -3.21070   1.44520   0.99660    49    48    50    44
 C    -3.34350   0.12550   1.28190    50    49    46    51
 C    -2.21880  -0.52640   1.92000    51    52    50    15
 C    -1.99050  -1.85150   1.49390    52    18    47    51
