    52
C52-C1-321                                                                      
 C    -2.72000  -0.64950  -1.90530     1     2    35     3
 C    -3.19310  -1.50440  -0.99570     2     1     4    11
 C    -1.42670  -0.66240  -2.37640     3     1    41     6
 C    -2.33210  -2.42070  -0.48750     4     2    13     5
 C    -1.05000  -2.61900  -1.03820     5    17     4     6
 C    -0.52330  -1.69740  -2.06150     6     3     9     5
 C     2.65620   0.26220  -1.86550     7    42    51     8
 C     1.35080  -0.03850  -2.36850     8     7    40     9
 C     0.89400  -1.43050  -2.16800     9    10     6     8
 C     1.80120  -2.25150  -1.43430    10    16    52     9
 C    -3.81330  -0.74910  -0.01730    11    12    20     2
 C    -3.26400  -1.18800   1.14560    12    13    11    21
 C    -2.44400  -2.23390   0.88400    13    15    12     4
 C    -0.19160  -2.70970   1.25590    14    15    28    17
 C    -1.34850  -2.18970   1.67440    15    14    13    27
 C     1.22900  -2.90020  -0.37250    16    17    46    10
 C    -0.06940  -3.01080  -0.12880    17    16     5    14
 C    -3.20360   1.45850   0.56920    18    29    20    19
 C    -2.57840   0.97420   1.75060    19    21    23    18
 C    -3.73970   0.58370  -0.37180    20    11    35    18
 C    -2.56410  -0.36990   2.00620    21    19    12    27
 C     0.99050   1.80430   1.98310    22    50    24    31
 C    -1.41030   1.70310   1.97460    23    30    19    24
 C    -0.17750   1.13230   2.41010    24    22    23    25
 C    -0.09650  -0.29290   2.58250    25    27    24    26
 C     1.16520  -0.96990   2.28910    26    28    25    49
 C    -1.34090  -0.97390   2.35810    27    15    21    25
 C     1.04610  -2.25970   1.67650    28    46    14    26
 C    -2.35030   2.43320   0.12630    29    30    18    33
 C    -1.37840   2.68140   1.01010    30    29    32    23
 C     0.93780   2.84940   1.02220    31    39    32    22
 C    -0.24770   3.10000   0.43210    32    30    31    36
 C    -1.75300   2.47600  -1.12180    33    34    29    36
 C    -2.05950   1.44290  -1.95270    34    33    35    41
 C    -3.08220   0.61120  -1.59760    35     1    34    20
 C    -0.43110   2.85540  -0.95040    36    33    32    37
 C     0.64820   2.25750  -1.65010    37    38    36    40
 C     1.89060   2.36630  -1.03020    38    42    37    39
 C     2.05470   2.73530   0.30520    39    31    45    38
 C     0.35790   1.02320  -2.37540    40    41     8    37
 C    -0.99930   0.67330  -2.47100    41    40     3    34
 C     2.85950   1.44120  -1.20630    42    38     7    43
 C     3.63260   1.27040  -0.08320    43    44    45    42
 C     3.89050  -0.03140  -0.01910    44    43    51    48
 C     2.95710   1.91490   0.87290    45    43    39    50
 C     1.94600  -2.62900   0.73990    46    47    28    16
 C     3.02160  -1.97420   0.39290    47    46    48    52
 C     3.34050  -0.79810   1.01220    48    47    44    49
 C     2.37140  -0.22160   1.93030    49    50    48    26
 C     2.24230   1.18390   1.82770    50    45    22    49
 C     3.48000  -0.62690  -1.20670    51    52     7    44
 C     3.02320  -1.82790  -0.97270    52    51    10    47
