    52
C52-C2-99                                                                       
 C     3.35400  -1.12420   1.22070     1    35    11     4
 C     1.67950   0.73030   2.26140     2     3    13     8
 C     0.74120   1.68100   2.15260     3    18     2    10
 C     2.11350  -1.48600   1.73870     4     1     8    40
 C    -2.04810  -2.03590   1.34300     5    51    41     6
 C    -0.68500  -1.97620   1.62380     6     5    39     7
 C    -0.19010  -0.83160   2.37880     7     8     6     9
 C     1.22760  -0.59920   2.34970     8     4     2     7
 C    -1.14880   0.27440   2.45460     9    52    10     7
 C    -0.59320   1.52760   2.21350    10     3     9    47
 C     3.61400   0.21090   0.94740    11    13     1    12
 C     3.97360   0.27850  -0.39350    12    34    11    16
 C     2.76780   1.13650   1.46910    13    11    14     2
 C     2.29780   2.22790   0.71880    14    18    13    15
 C     2.37540   2.13630  -0.69030    15    16    17    14
 C     3.12590   1.06150  -1.18030    16    12    15    21
 C     1.15070   2.46170  -1.31280    17    15    23    20
 C     1.10290   2.60830   1.26490    18     3    19    14
 C    -0.02240   3.05000   0.67130    19    18    20    47
 C     0.01350   3.05760  -0.69320    20    33    19    17
 C     2.45880   0.12990  -2.01910    21    22    24    16
 C     2.96160  -1.08220  -1.67130    22    34    21    28
 C     0.58460   1.55070  -2.23100    23    30    24    17
 C     1.14100   0.29150  -2.43350    24    21    23    26
 C    -1.22630  -0.56890  -2.35090    25    29    31    26
 C     0.19090  -0.81940  -2.35700    26    25    27    24
 C     0.69300  -1.96160  -1.60690    27    28    38    26
 C     2.04680  -2.04580  -1.31240    28    22    36    27
 C    -2.10630  -1.45920  -1.73950    29    25    37    32
 C    -0.74760   1.71660  -2.18360    30    33    31    23
 C    -1.68340   0.75960  -2.28960    31    30    25    44
 C    -3.36520  -1.12540  -1.23460    32    42    46    29
 C    -1.12190   2.63740  -1.29140    33    30    20    50
 C     4.00360  -1.01960  -0.80440    34    35    22    12
 C     3.68850  -1.89450   0.15320    35    34    36     1
 C     2.54040  -2.55490  -0.11920    36    35    40    28
 C    -1.58700  -2.40270  -0.85210    37    41    38    29
 C    -0.23390  -2.54890  -0.67360    38    37    27    39
 C     0.24590  -2.58470   0.70460    39    40     6    38
 C     1.60290  -2.46450   0.87770    40    36    39     4
 C    -2.53820  -2.49660   0.12820    41    42    37     5
 C    -3.70130  -1.86840  -0.15300    42    43    41    32
 C    -3.99800  -1.03350   0.84580    43    42    51    45
 C    -2.77930   1.15570  -1.50000    44    46    50    31
 C    -3.93950   0.24520   0.36550    45    43    46    48
 C    -3.61010   0.21380  -0.97770    46    44    45    32
 C    -1.15040   2.45350   1.30300    47    49    10    19
 C    -3.09270   1.02690   1.16530    48    45    49    52
 C    -2.35830   2.11480   0.66650    49    48    47    50
 C    -2.31150   2.24370  -0.74060    50    33    44    49
 C    -2.99010  -1.10120   1.73980    51    43    52     5
 C    -2.46870   0.10630   2.05710    52    51     9    48
