    52
C52-C1-104                                                                      
 C    -2.10630  -1.40430  -1.74510     1     2     4    31
 C    -2.59220  -0.17130  -1.96070     2     1    13     8
 C    -0.24920  -2.76300  -1.29810     3    10    35     4
 C    -0.76660  -1.71120  -2.04910     4     3     1     6
 C     1.57050  -0.79010  -2.14190     5     9    11     6
 C     0.15940  -0.63670  -2.42750     6     5     7     4
 C    -0.38540   0.71760  -2.41440     7     8    17     6
 C    -1.76230   0.87430  -2.24000     8     2    15     7
 C     2.40020   0.31820  -1.96880     9     5    12    16
 C     1.06040  -2.77200  -0.96660    10    11     3    37
 C     1.99090  -1.89720  -1.36810    11    10    50     5
 C     3.56140   0.32660  -1.19180    12    48    52     9
 C    -3.60440   0.18000  -1.12870    13     2    14    30
 C    -3.50290   1.52240  -0.90580    14    18    13    15
 C    -2.34850   1.90990  -1.56300    15    26     8    14
 C     1.82230   1.58330  -1.81130    16    27    17     9
 C     0.45580   1.77880  -1.90660    17    16     7    25
 C    -3.39610   1.96630   0.36460    18    14    28    19
 C    -2.18540   2.64180   0.40530    19    26    23    18
 C     1.99010   2.53730   0.21840    20    21    27    45
 C     0.63390   2.71230   0.30060    21    20    25    22
 C    -0.03850   2.21360   1.48750    22    23    21    47
 C    -1.41490   2.21410   1.45990    23    24    19    22
 C    -2.14780   1.20270   1.98650    24    23    28    39
 C    -0.15790   2.65750  -0.91200    25    26    21    17
 C    -1.52960   2.67770  -0.79760    26    15    19    25
 C     2.66370   2.24100  -0.94240    27    48    20    16
 C    -3.32850   1.01770   1.34130    28    24    18    29
 C    -3.41230  -0.34700   1.15120    29    28    33    30
 C    -3.61700  -0.81590  -0.16710    30    13    31    29
 C    -2.81400  -1.87690  -0.59840    31    32    30     1
 C    -2.04630  -2.64150   0.24610    32    35    31    34
 C    -2.36380  -0.94210   1.87370    33    34    39    29
 C    -1.74070  -2.09230   1.51060    34    33    38    32
 C    -0.88830  -3.19520  -0.14340    35    32    36     3
 C     0.04220  -3.20730   0.83910    36    37    35    38
 C     1.25970  -3.08280   0.33580    37    36    44    10
 C    -0.39050  -2.33420   1.78980    38    36    34    41
 C    -1.51890   0.06110   2.36870    39    24    33    40
 C    -0.11390  -0.03790   2.49430    40    39    47    41
 C     0.51380  -1.32440   2.25850    41    38    40    43
 C     2.68160  -0.20510   1.81450    42    43    46    51
 C     1.90340  -1.37010   1.82560    43    42    44    41
 C     2.25210  -2.29730   0.78410    44    37    50    43
 C     2.73090   1.89210   1.18990    45    49    46    20
 C     2.01670   1.02510   1.96950    46    45    47    42
 C     0.65850   1.14480   2.19220    47    46    40    22
 C     3.77880   1.55020  -0.64100    48    49    27    12
 C     3.86380   1.34500   0.68080    49    48    51    45
 C     2.93470  -1.76140  -0.32490    50    52    44    11
 C     3.77570   0.02690   0.96050    51    49    52    42
 C     3.69980  -0.65840  -0.23140    52    50    51    12
