    52
C52-C2-381                                                                      
 C     2.82830  -1.43210  -1.09770     1    32     2     4
 C     2.36720  -2.34900  -0.17150     2     3     1     5
 C     1.19480  -2.99960  -0.46660     3     8     2    25
 C     3.27470  -0.16540  -0.67750     4     7     1    35
 C     2.28360  -2.01510   1.18050     5     6     2    11
 C     2.74750  -0.78580   1.58440     6    15     5     7
 C     3.28180   0.16650   0.68340     7     4    52     6
 C     0.43320  -3.12690   0.61590     8     3     9    11
 C    -0.87550  -3.05910   0.28360     9     8    10    24
 C    -1.71330  -2.44870   1.16600    10    16     9    14
 C     1.02750  -2.46440   1.66880    11     8    13     5
 C     0.70700  -0.41760   2.84610    12    15    13    19
 C     0.18760  -1.66250   2.48580    13    12    14    11
 C    -1.19080  -1.67880   2.23540    14    13    21    10
 C     1.97700  -0.06690   2.44610    15    49     6    12
 C    -2.77310  -1.80220   0.65960    16    10    17    22
 C    -3.00590  -0.70370   1.41950    17    18    16    21
 C    -3.48870   0.24160   0.62330    18    17    48    27
 C    -0.05040   0.78410   2.81630    19    44    20    12
 C    -1.42690   0.78220   2.47560    20    19    21    47
 C    -1.99350  -0.51390   2.31490    21    17    14    20
 C    -2.96650  -1.51690  -0.68610    22    27    16    23
 C    -1.92550  -1.84380  -1.59900    23    22    24    30
 C    -0.93770  -2.75190  -1.10660    24    25     9    23
 C     0.38300  -2.74810  -1.55790    25    26     3    24
 C     0.82430  -1.79680  -2.42740    26    25    32    31
 C    -3.50850  -0.25600  -0.65450    27    28    18    22
 C    -3.03070   0.70160  -1.43350    28    27    43    29
 C    -1.99920   0.50930  -2.31040    29    28    36    30
 C    -1.42330  -0.78240  -2.47980    30    31    29    23
 C    -0.05250  -0.77810  -2.82950    31    26    30    38
 C     2.04500  -1.21880  -2.20640    32    33    26     1
 C     1.99130   0.08080  -2.47400    33    32    35    38
 C     2.28700   2.01200  -1.16330    34    35    51    39
 C     2.75830   0.78870  -1.59040    35    33    34     4
 C    -1.18600   1.67190  -2.21420    36    37    40    29
 C     0.19370   1.64890  -2.47800    37    38    36    39
 C     0.71470   0.41990  -2.87120    38    33    37    31
 C     1.02180   2.44320  -1.64410    39    42    37    34
 C    -1.72160   2.43790  -1.14960    40    43    41    36
 C    -0.86730   3.04120  -0.27600    41    42    40    46
 C     0.44880   3.10720  -0.59190    42    50    41    39
 C    -2.78880   1.79640  -0.66310    43    40    28    48
 C     0.82590   1.80300   2.41640    44    45    49    19
 C     0.38370   2.76020   1.55060    45    44    50    46
 C    -0.94320   2.75540   1.11510    46    45    41    47
 C    -1.93290   1.84640   1.60140    47    48    46    20
 C    -2.96330   1.50610   0.68470    48    18    43    47
 C     2.06170   1.23560   2.18760    49    15    44    52
 C     1.23050   3.02220   0.48360    50    42    51    45
 C     2.40830   2.37600   0.18670    51    50    52    34
 C     2.87530   1.44940   1.09260    52    51    49     7
