    52
C52-C1-382                                                                      
 C    -2.01460   2.57610  -0.03930     1     2     9    36
 C    -3.02420   1.67700  -0.18800     2    31     1     4
 C     0.52350   3.27210   0.69060     3    52    35     8
 C    -3.09750   0.79800  -1.24910     4     5     6     2
 C    -3.52200  -0.37960  -0.68940     5     4    30    12
 C    -2.02440   0.79620  -2.10370     6     4     7    10
 C    -1.06890   1.81230  -2.05100     7     6    15     9
 C     0.17940   3.29750  -0.65500     8    19     9     3
 C    -1.06560   2.83890  -1.05130     9     8     1     7
 C    -1.37060  -0.40530  -2.42660    10     6    16    11
 C    -1.78790  -1.63340  -1.85620    11    13    12    10
 C    -2.86890  -1.56720  -0.95360    12     5    22    11
 C    -0.73760  -2.51540  -1.58160    13    11    18    20
 C     1.33930   1.75870  -2.05640    14    19    15    26
 C     0.14300   1.24340  -2.47990    15    14    16     7
 C    -0.01400  -0.12390  -2.66590    16    15    10    17
 C     1.03750  -1.03870  -2.41100    17    16    18    27
 C     0.61380  -2.30470  -1.93360    18    25    13    17
 C     1.35340   2.82960  -1.21490    19    49    14     8
 C    -0.69410  -3.17470  -0.32060    20    23    21    13
 C    -1.57420  -2.77790   0.63840    21    22    20    39
 C    -2.70120  -2.13250   0.30000    22    21    29    12
 C     0.59200  -3.32900  -0.01630    23    20    25    37
 C     2.52210  -2.48180  -0.54510    24    25    43    28
 C     1.39900  -2.97300  -1.03890    25    24    23    18
 C     2.39600   0.90310  -1.72090    26    14    27    46
 C     2.30330  -0.50690  -1.90760    27    28    26    17
 C     3.03170  -1.27960  -0.95820    28    24    48    27
 C    -3.05930  -1.23830   1.23730    29    30    22    32
 C    -3.69620  -0.21170   0.66470    30    31    29     5
 C    -3.29790   1.01710   0.96790    31    30     2    34
 C    -1.94890  -1.08290   2.05850    32    29    39    33
 C    -1.47510   0.21770   2.39510    33    32    34    41
 C    -2.24260   1.29220   1.81080    34    31    36    33
 C    -0.28190   2.63350   1.59470    35    36     3    42
 C    -1.57410   2.39270   1.29900    36    35    34     1
 C     1.14010  -2.86450   1.17630    37    43    23    38
 C     0.33460  -2.03910   2.01610    38    39    37    40
 C    -1.04890  -2.11740   1.78790    39    32    38    21
 C     0.86240  -0.74940   2.45390    40    45    38    41
 C    -0.05000   0.38460   2.58510    41    42    33    40
 C     0.50140   1.67090   2.25780    42    51    35    41
 C     2.39410  -2.47020   0.81580    43    44    37    24
 C     2.89900  -1.33660   1.24730    44    43    48    45
 C     2.21480  -0.45900   2.04190    45    44    50    40
 C     3.04530   1.51440  -0.60370    46    49    47    26
 C     3.36240   0.67140   0.44320    47    48    46    50
 C     3.44480  -0.64330   0.20480    48    47    44    28
 C     2.35910   2.66290  -0.32940    49    19    52    46
 C     2.63220   0.81310   1.65880    50    51    45    47
 C     1.81370   1.88750   1.82090    51    50    52    42
 C     1.80100   2.87840   0.88410    52     3    49    51
