    52
C52-C2-162                                                                      
 C    -1.74060   0.65530  -2.24070     1     2    37     3
 C    -2.98990   0.28960  -1.84060     2     8    26     1
 C    -0.67320  -0.25020  -2.43890     3     1     4     9
 C     0.65960   0.24540  -2.43190     4     6     3    35
 C     2.96210  -0.29020  -1.81230     5    36    49     6
 C     1.71940  -0.66240  -2.21740     6     5    15     4
 C    -3.99330  -0.92130  -0.34610     7    12     8    28
 C    -3.25530  -0.96970  -1.48440     8     2     7    10
 C    -0.93050  -1.61820  -1.95820     9    10    16     3
 C    -2.22460  -1.85310  -1.40740    10     8    11     9
 C    -2.36370  -2.43540  -0.13380    11    13    12    10
 C    -3.32200  -1.68300   0.52240    12     7    11    19
 C    -1.22960  -2.79830   0.47450    13    11    14    17
 C    -0.02480  -2.99350  -0.18480    14    25    13    16
 C     1.50810  -1.92230  -1.64660    15     6    16    50
 C     0.18330  -2.34230  -1.43480    16    15    14     9
 C    -0.89150  -2.16590   1.68480    17    22    18    13
 C    -1.59370  -1.05340   2.15220    18    17    19    23
 C    -2.86040  -0.85020   1.54530    19    12    20    18
 C    -3.35630   0.42360   1.21920    20    21    28    19
 C    -2.49050   1.45620   1.49250    21    20    24    29
 C     0.44570  -2.23780   1.74110    22    17    25    31
 C    -0.73440   0.05010   2.54930    23    24    18    32
 C    -1.28820   1.30060   2.20030    24    33    21    23
 C     1.00190  -2.88020   0.70220    25    51    22    14
 C    -3.56030   1.16880  -0.97510    26    27     2    28
 C    -2.63140   2.13950  -0.79230    27    26    29    37
 C    -4.08510   0.38290   0.02740    28     7    26    20
 C    -2.22880   2.42780   0.48950    29    30    27    21
 C    -0.97980   2.84120   0.70990    30    29    33    38
 C     1.29390  -1.27810   2.17400    31    22    44    32
 C     0.74040  -0.03600   2.54290    32    31    47    23
 C    -0.43530   2.26430   1.78680    33    30    48    24
 C     2.20610   1.84330  -1.40020    34    36    43    35
 C     0.91360   1.61350  -1.95500    35    39    34     4
 C     3.24600   0.95980  -1.44780    36     5    40    34
 C    -1.51250   1.91160  -1.65760    37     1    39    27
 C     0.03630   2.98300  -0.18700    38    30    41    39
 C    -0.19380   2.34050  -1.43180    39    37    38    35
 C     4.01200   0.92750  -0.33130    40    42    36    52
 C     1.23380   2.80780   0.48440    41    43    38    48
 C     3.34110   1.70680   0.52350    42    40    43    46
 C     2.36900   2.43140  -0.12410    43    41    42    34
 C     2.49080  -1.46650   1.47190    44    45    31    51
 C     3.34130  -0.41620   1.21010    45    44    52    46
 C     2.85850   0.86630   1.54500    46    42    45    47
 C     1.59250   1.07640   2.15710    47    48    46    32
 C     0.89990   2.20330   1.71350    48    33    47    41
 C     3.55070  -1.17400  -0.96570    49     5    50    52
 C     2.63570  -2.16420  -0.79180    50    49    51    15
 C     2.25840  -2.46750   0.49170    51    25    50    44
 C     4.08720  -0.38170   0.03130    52    40    49    45
