    52
C52-C1-144                                                                      
 C    -4.06140   0.16660  -0.04920     1    35     2     8
 C    -3.59450  -0.66340  -1.03550     2     9     3     1
 C    -3.12720  -1.80240  -0.43340     3    37    14     2
 C     0.28700  -2.11180   1.72740     4    50     5    40
 C    -0.95510  -2.44860   1.15770     5    36     4    13
 C    -2.66860   1.85290  -0.99610     6    16     8     7
 C    -2.25980   0.99230  -2.04980     7     9    21     6
 C    -3.40940   1.38460   0.07050     8     6     1    23
 C    -2.67090  -0.30990  -1.97510     9     2     7    10
 C    -1.66860  -1.27150  -2.04810    10     9    11    14
 C    -0.34380  -1.01010  -2.44320    11    12    10    20
 C     0.60700  -1.89230  -1.96280    12    22    11    15
 C    -0.88250  -2.72370  -0.26920    13    15    14     5
 C    -1.95260  -2.19900  -1.01070    14     3    13    10
 C     0.37910  -2.73080  -0.84430    15    13    51    12
 C    -1.57200   2.58970  -0.75780    16     6    17    26
 C    -0.58610   2.36680  -1.64390    17    33    16    21
 C     2.42760  -0.32850  -2.15070    18    22    45    19
 C     1.49200   0.71770  -2.36180    19    18    32    20
 C     0.09400   0.36380  -2.65240    20    21    11    19
 C    -0.93300   1.29100  -2.39270    21    17     7    20
 C     1.91320  -1.57650  -1.92620    22    12    47    18
 C    -2.71390   1.40320   1.31790    23    24    27     8
 C    -3.00930   0.17970   1.85440    24    35    23    39
 C     0.37910   2.93400   0.18340    25    28    26    33
 C    -0.97040   2.78700   0.44970    26    16    25    27
 C    -1.46230   2.02400   1.53110    27    26    23    30
 C     1.30100   2.54800   1.08430    28    25    31    29
 C     0.91640   1.69710   2.13180    29    42    28    30
 C    -0.44570   1.33980   2.30150    30    29    27    38
 C     2.53180   2.17850   0.65170    31    41    28    34
 C     1.78630   1.92810  -1.58060    32    33    34    19
 C     0.64240   2.62210  -1.17120    33    17    32    25
 C     2.87400   1.88940  -0.66710    34    46    31    32
 C    -3.86620  -0.52670   1.10400    35    24    37     1
 C    -2.12280  -1.83200   1.63110    36    37     5    39
 C    -3.28770  -1.72430   0.91110    37    35     3    36
 C    -0.69190  -0.05790   2.58850    38    39    40    30
 C    -1.94550  -0.58080   2.29320    39    24    38    36
 C     0.42170  -0.91830   2.47610    40    43    38     4
 C     3.02280   1.22610   1.47430    41    44    31    42
 C     2.00890   0.83950   2.30570    42    41    43    29
 C     1.74000  -0.50950   2.37620    43    42    40    49
 C     3.78420   0.39440   0.73360    44    41    46    52
 C     3.54260  -0.26000  -1.32520    45    46    48    18
 C     3.73880   0.82370  -0.57800    46    45    34    44
 C     2.57530  -2.19810  -0.92860    47    48    22    51
 C     3.55330  -1.38180  -0.50620    48    47    52    45
 C     2.48700  -1.41180   1.60710    49    43    50    52
 C     1.53850  -2.34120   1.15530    50    51     4    49
 C     1.59280  -2.75830  -0.16260    51    47    50    15
 C     3.56260  -0.96740   0.80810    52    48    44    49
