    52
C52-C1-361                                                                      
 C    -0.98930   2.83030  -0.97980     1     4     2    30
 C    -0.96990   3.11860   0.39250     2     3     8     1
 C    -1.97020   2.57550   1.12070     3    27     2     9
 C     0.21560   2.54460  -1.59750     4     5     1    39
 C     1.41060   2.68810  -0.93600     5     6     4     7
 C     2.45390   1.91330  -1.26980     6     5    18    33
 C     1.42020   2.78260   0.46210     7     8    19     5
 C     0.22100   2.89260   1.08920     8     7     2    11
 C    -1.41290   1.85410   2.11950     9     3    13    11
 C     0.80930   0.92550   2.46740    10    11    20    21
 C    -0.05820   1.99370   2.13740    11     9     8    10
 C    -1.33260  -0.46720   2.48870    12    13    15    21
 C    -2.08550   0.68380   2.27060    13     9    14    12
 C    -3.12940   0.74150   1.35130    14    17    27    13
 C    -1.84370  -1.61950   1.80290    15    47    16    12
 C    -2.92000  -1.54450   0.86480    16    24    17    15
 C    -3.45350  -0.30630   0.55960    17    14    16    22
 C     3.21040   1.62450  -0.17630    18    48     6    19
 C     2.44530   1.96970   0.92920    19    18     7    20
 C     2.16980   0.97030   1.92670    20    50    19    10
 C     0.11410  -0.36870   2.67070    21    52    12    10
 C    -3.39960   0.17110  -0.78380    22    23    26    17
 C    -2.81300  -0.67580  -1.72040    23    25    22    28
 C    -2.58530  -2.41770  -0.12920    24    31    25    16
 C    -2.49730  -1.94930  -1.39540    25    23    34    24
 C    -3.03950   1.52290  -0.70420    26    27    22    30
 C    -3.00020   1.87690   0.60950    27     3    26    14
 C    -1.71090  -0.20370  -2.45720    28    29    23    35
 C    -1.31180   1.10420  -2.35770    29    28    39    30
 C    -1.97560   1.97640  -1.50040    30    29    26     1
 C    -1.42680  -3.04590   0.13080    31    24    47    41
 C     3.13710  -0.10410  -1.45800    32    33    40    48
 C     2.31860   0.79370  -2.06420    33    32     6    38
 C    -1.26450  -2.27150  -1.84800    34    25    41    35
 C    -0.71550  -1.20980  -2.50730    35    34    37    28
 C     1.50390  -1.88330  -1.68310    36    40    42    37
 C     0.67250  -0.95720  -2.48070    37    35    38    36
 C     1.07390   0.43480  -2.57690    38    33    39    37
 C     0.03910   1.41200  -2.43060    39    29     4    38
 C     2.75230  -1.39440  -1.21400    40    32    43    36
 C    -0.55250  -3.01320  -0.95110    41    34    42    31
 C     0.81280  -2.84240  -0.80690    42    41    45    36
 C     3.24520  -1.66130   0.05330    43    44    49    40
 C     2.40810  -2.24230   0.88850    44    43    45    51
 C     1.26540  -2.86170   0.55020    45    44    46    42
 C     0.33960  -2.54600   1.57230    46    47    52    45
 C    -0.98230  -2.61780   1.34650    47    46    31    15
 C     3.76650   0.41890  -0.34320    48    49    18    32
 C     3.70110  -0.49120   0.62100    49    48    43    50
 C     2.87520  -0.24440   1.72800    50    51    49    20
 C     2.16870  -1.38730   1.91290    51    52    44    50
 C     0.88820  -1.49000   2.30910    52    51    46    21
