    52
C52-C1-213                                                                      
 C    -2.41570   2.46720   0.04360     1     4    35     2
 C    -2.25800   2.04430   1.32040     2     1     3     8
 C    -2.82860   0.83710   1.67760     3     7     2    28
 C    -1.24470   2.93320  -0.43160     4     1    15    37
 C     2.57910   1.52740  -1.30640     5    16    42     6
 C     1.39110   2.30760  -1.16830     6     5    39    14
 C    -2.05540   0.02050   2.44570     7    17     3    11
 C    -0.90720   2.32480   1.64720     8    10     2    15
 C     1.22270   1.40460   2.22280     9    10    13    23
 C    -0.14110   1.44890   2.44010    10     9    11     8
 C    -0.75390   0.25520   2.81940    11     7    10    25
 C     2.99750   1.50780   0.93280    12    16    13    47
 C     1.84840   2.15270   1.19960    13    12    14     9
 C     1.05620   2.74130   0.19930    14    15    13     6
 C    -0.28110   2.93400   0.51680    15     4    14     8
 C     3.49780   1.29980  -0.29720    16    12    52     5
 C    -2.21400  -1.25440   2.10110    17     7    20    18
 C    -3.05780  -1.32310   1.01060    18    17    19    28
 C    -2.61510  -2.14610  -0.00630    19    18    22    29
 C    -1.00340  -1.89330   2.26290    20    21    17    25
 C    -0.60190  -2.75760   1.29180    21    20    22    51
 C    -1.44440  -2.85260   0.20740    22    34    21    19
 C     1.97660   0.20580   2.36380    23    47    24     9
 C     1.30780  -1.03460   2.41640    24    25    23    50
 C    -0.06140  -0.97510   2.74120    25    20    24    11
 C    -3.48720   0.43230  -0.60380    26    35    28    27
 C    -2.92740  -0.38480  -1.61720    27    29    31    26
 C    -3.46980  -0.00730   0.72610    28    26    18     3
 C    -2.50790  -1.67920  -1.32480    29    27    19    30
 C    -1.29550  -2.15590  -1.84600    30    34    33    29
 C    -2.08630   0.41200  -2.42000    31    36    32    27
 C    -0.84620  -0.03340  -2.82760    32    31    33    38
 C    -0.45590  -1.34110  -2.57950    33    30    32    46
 C    -0.68500  -2.89160  -0.88250    34    22    30    43
 C    -2.99890   1.68490  -0.88850    35     1    36    26
 C    -2.14870   1.67600  -1.93790    36    35    31    37
 C    -1.01470   2.43750  -1.69380    37     4    36    39
 C     0.31380   0.75640  -2.71690    38    40    32    39
 C     0.27190   2.02030  -2.04530    39    37    38     6
 C     1.40940  -0.07770  -2.59010    40    42    38    46
 C     3.36290  -0.57240  -1.30650    41    52    42    44
 C     2.57340   0.30980  -2.01210    42    40    41     5
 C     0.64630  -2.85980  -0.56920    43    34    45    51
 C     2.71440  -1.70250  -0.80230    44    45    41    49
 C     1.54540  -2.18000  -1.38690    45    44    43    46
 C     0.92440  -1.37730  -2.39020    46    33    40    45
 C     3.11030   0.35330   1.63650    47    48    23    12
 C     3.69390  -0.57490   0.84330    48    52    47    49
 C     2.87380  -1.66950   0.62050    49    48    50    44
 C     1.75830  -2.02000   1.43230    50    51    49    24
 C     0.72320  -2.77010   0.84390    51    21    50    43
 C     4.00710   0.04290  -0.30870    52    41    48    16
