    52
C52-C2-311                                                                      
 C    -1.44620  -1.85590  -1.93860     1     2    26     9
 C    -0.11750  -1.99930  -1.97360     2     1     3    11
 C     0.72350  -0.95270  -2.35370     3     2    13     4
 C     0.03950   0.33870  -2.54700     4     5     7     3
 C     0.84490   1.44920  -2.31180     5     6     4    52
 C     2.18320   1.34830  -2.00630     6    20    12     5
 C    -1.39090   0.48290  -2.31780     7     9     4     8
 C    -1.89290   1.66220  -1.58570     8    51    10     7
 C    -2.13810  -0.70610  -2.14840     9     1    38     7
 C    -3.06020   1.43400  -0.75170    10    48    37     8
 C     0.17920  -2.92410  -0.97130    11    15     2    25
 C     2.76060   0.17070  -1.64750    12     6    13    16
 C     2.06970  -1.02650  -1.82680    13    12    14     3
 C     2.39590  -2.03560  -0.88720    14    18    15    13
 C     1.40580  -2.91720  -0.43430    15    11    21    14
 C     3.53630   0.46490  -0.48920    16    17    19    12
 C     3.52760  -0.47490   0.49170    17    16    18    45
 C     3.20800  -1.78150   0.21820    18    22    17    14
 C     3.20190   1.76850  -0.21070    19    20    16    43
 C     2.58050   2.35900  -1.24380    20    47     6    19
 C     1.51370  -3.03740   0.92650    21    22    15    23
 C     2.59410  -2.34450   1.25880    22    34    21    18
 C     0.40060  -2.59220   1.63710    23    24    21    35
 C    -0.90000  -2.63010   1.14430    24    23    25    29
 C    -1.00180  -3.07440  -0.22040    25    26    11    24
 C    -2.01790  -2.60180  -0.95810    26    27    25     1
 C    -3.05480  -1.91730  -0.52740    27    26    30    38
 C    -1.36950  -0.48990   2.31570    28    31    36    29
 C    -1.88500  -1.66080   1.58400    29    30    24    28
 C    -3.05630  -1.42970   0.76190    30    33    27    29
 C    -2.12040   0.69500   2.13930    31    41    32    28
 C    -3.23560   0.82610   1.35300    32    33    31    48
 C    -3.64540  -0.19430   0.64440    33    32    30    37
 C     2.20860  -1.35980   2.05540    34    22    45    35
 C     0.86690  -1.45540   2.34360    35    34    36    23
 C     0.06000  -0.34120   2.55510    36    35    28    39
 C    -3.66320   0.19310  -0.67520    37    38    33    10
 C    -3.26050  -0.83810  -1.36910    38    37     9    27
 C     0.73330   0.95810   2.35190    39    40    44    36
 C    -0.11330   1.99740   1.96660    40    41    39    46
 C    -1.43940   1.85190   1.93150    41    40    31    49
 C     1.40230   2.91770   0.42200    42    46    47    43
 C     2.38840   2.03060   0.88860    43    19    42    44
 C     2.08570   1.01650   1.83460    44    45    43    39
 C     2.78480  -0.17960   1.67620    45    34    44    17
 C     0.17480   2.92380   0.96090    46    42    40    50
 C     1.50750   3.06300  -0.94150    47    20    42    52
 C    -3.04460   1.92140   0.53910    48    49    32    10
 C    -2.00440   2.60930   0.95330    49    48    50    41
 C    -1.00110   3.08700   0.19900    50    49    46    51
 C    -0.91080   2.64430  -1.16560    51    52    50     8
 C     0.39090   2.61010  -1.64670    52    51    47     5
