    52
C52-C1-301                                                                      
 C     1.35450  -2.85640  -1.10820     1     3    20    28
 C     0.72580  -1.14580  -2.54640     2     3     4    31
 C     1.72520  -1.83030  -1.89570     3     1     2    14
 C     0.81690   0.23690  -2.66720     4     5    11     2
 C     1.90990   0.90820  -2.16870     5     4     7    13
 C     0.19650   3.26480  -0.08980     6    18    52     8
 C     1.74520   2.16280  -1.57030     7    17     5     8
 C     0.42540   2.69990  -1.39590     8     7     9     6
 C    -0.70550   2.03760  -1.98440     9    10    11     8
 C    -1.98880   2.11980  -1.39960    10    12     9    51
 C    -0.45590   0.77190  -2.61350    11     4    43     9
 C    -2.92360   1.10110  -1.50740    12    45    42    10
 C     2.91160   0.19310  -1.49070    13    16    14     5
 C     2.76300  -1.14500  -1.27200    14    13     3    19
 C     2.41100   2.65640   0.59890    15    17    18    24
 C     3.31150   0.99470  -0.48000    16    13    17    21
 C     2.74350   2.21810  -0.60550    17    15    16     7
 C     1.19510   3.13000   0.84510    18    15    48     6
 C     2.85650  -1.69690   0.03300    19    20    14    22
 C     2.08790  -2.81730   0.03870    20    23    19     1
 C     3.17820   0.53580   0.83420    21    24    22    16
 C     2.81870  -0.77650   1.13930    22    21    19    25
 C     1.27090  -3.15630   1.02200    23    20    26    27
 C     2.57400   1.59030   1.45400    24    21    32    15
 C     1.72950  -1.00160   2.11320    25    26    22    33
 C     1.03180  -2.22170   2.00750    26    37    23    25
 C     0.07130  -3.53850   0.45660    27    29    28    23
 C     0.04630  -3.24400  -0.88370    28    27     1    30
 C    -0.88610  -3.01340   1.21070    29    27    39    37
 C    -1.02410  -2.51390  -1.45940    30    28    31    40
 C    -0.62700  -1.47510  -2.36640    31    43     2    30
 C     1.46180   1.42650   2.23700    32    48    24    33
 C     0.94360   0.16990   2.55840    33    32    25    35
 C    -1.35830   1.23260   2.21790    34    49    38    35
 C    -0.53230   0.09950   2.63480    35    36    34    33
 C    -1.09820  -1.16730   2.40030    36    37    35    47
 C    -0.31810  -2.22830   2.15580    37    36    29    26
 C    -2.60230   0.99520   1.58670    38    50    46    34
 C    -2.01230  -2.41090   0.76500    39    29    47    40
 C    -2.18810  -2.18970  -0.64620    40    41    39    30
 C    -2.97110  -1.06290  -0.95750    41    44    40    42
 C    -2.57070  -0.14130  -1.94390    42    43    12    41
 C    -1.36220  -0.30930  -2.53190    43    42    31    11
 C    -3.56780  -0.27640   0.03270    44    45    46    41
 C    -3.58500   0.99810  -0.35560    45    50    12    44
 C    -3.03230  -0.30720   1.29240    46    47    44    38
 C    -2.28160  -1.35310   1.66110    47    46    36    39
 C     0.64590   2.46360   1.88070    48    49    18    32
 C    -0.68290   2.38300   1.76930    49    48    34    52
 C    -3.02880   1.81150   0.53090    50    45    51    38
 C    -2.13000   2.63740  -0.08650    51    52    50    10
 C    -1.02030   3.04370   0.55370    52    51     6    49
