    52
C52-C1-235                                                                      
 C    -2.47450   2.25230  -0.04520     1     2    35     4
 C    -1.42540   3.07080  -0.17600     2     1     3     9
 C    -0.52480   3.21940   0.83420     3     6     2    25
 C    -2.85190   1.36960  -1.08330     4    37     1     7
 C     0.62680   3.26040  -0.98460     5     9    10     6
 C     0.71880   3.45200   0.36210     6    11     3     5
 C    -1.82960   0.99660  -2.01990     7     8     4    18
 C    -0.73820   1.86330  -2.08940     8     9     7    22
 C    -0.65090   2.97960  -1.29780     9     5     2     8
 C     1.43090   2.34960  -1.60210    10     5    13    22
 C     1.62010   2.73740   1.06910    11     6    12    26
 C     2.67450   2.15340   0.40730    12    27    11    13
 C     2.55530   1.88260  -0.97950    13    10    14    12
 C     3.05890   0.61430  -1.18820    14    13    32    16
 C     2.40760  -1.64940  -1.42320    15    23    33    16
 C     2.25030  -0.33030  -1.90000    16    15    14    21
 C    -2.50650  -1.29950  -1.54300    17    36    51    18
 C    -1.57900  -0.41230  -2.19580    18    17     7    20
 C     0.08540  -2.11910  -1.81930    19    23    52    20
 C    -0.20280  -0.84890  -2.36640    20    19    18    21
 C     0.93060   0.07190  -2.39390    21    22    20    16
 C     0.59030   1.43260  -2.27200    22    21     8    10
 C     1.31760  -2.43900  -1.38820    23    19    15    49
 C    -1.51710   1.33720   1.97950    24    25    35    30
 C    -0.47320   2.24560   1.81320    25     3    26    24
 C     0.86890   1.91710   1.96440    26    25    29    11
 C     3.22920   1.04470   0.91530    27    12    32    28
 C     2.54870   0.26000   1.84070    28    43    27    29
 C     1.26250   0.60130   2.28380    29    28    26    39
 C    -1.15910  -0.04460   2.29370    30    40    39    24
 C     3.66540  -1.05030   0.41310    31    33    32    43
 C     3.73020   0.20430  -0.03910    32    31    27    14
 C     3.16690  -2.05120  -0.30910    33    31    50    15
 C    -3.47820   0.51650   0.83930    34    35    41    37
 C    -2.66570   1.52880   1.14590    35    34     1    24
 C    -3.59000  -0.88960  -0.78050    36    37    38    17
 C    -3.62620   0.41670  -0.51250    37    36     4    34
 C    -3.62330  -1.62640   0.36400    38    42    41    36
 C     0.23950  -0.43730   2.37690    39    30    29    45
 C    -2.12190  -1.01890   1.90610    40    41    48    30
 C    -3.33960  -0.72020   1.33180    41    34    38    40
 C    -2.66060  -2.53360   0.32990    42    38    51    48
 C     2.86310  -1.00910   1.51750    43    28    44    31
 C     1.96220  -2.02370   1.52840    44    43    50    45
 C     0.61610  -1.79740   1.92940    45    44    47    39
 C    -0.01480  -3.26380   0.07300    46    49    52    47
 C    -0.40130  -2.60450   1.29190    47    48    46    45
 C    -1.73090  -2.24590   1.35330    48    47    40    42
 C     1.28540  -3.22870  -0.27610    49    50    46    23
 C     2.31550  -2.83090   0.44090    50    49    33    44
 C    -2.04930  -2.46020  -0.89830    51    52    42    17
 C    -0.78740  -2.84000  -1.01770    52    51    19    46
