    52
C52-C1-190                                                                      
 C    -1.55110   2.12290  -1.41570     1     2     4    25
 C    -2.62940   1.34650  -1.40740     2     1     8    13
 C     0.78740   2.44170  -1.54010     3    11     4    37
 C    -0.32690   1.72250  -1.97610     4     3     1     6
 C     1.12250  -0.24220  -2.25310     5     9     6    12
 C    -0.20630   0.32780  -2.34920     6     4     5     7
 C    -1.39820  -0.50960  -2.18590     7     8    19     6
 C    -2.64050   0.06570  -1.83340     8     2    15     7
 C     1.20070  -1.62530  -1.95640     9    52    18     5
 C     2.73210   2.48400  -0.38050    10    38    43    11
 C     2.05420   1.86260  -1.44680    11    12     3    10
 C     2.27430   0.52890  -1.79210    12    11    50     5
 C    -3.41180   1.51190  -0.30600    13    14     2    24
 C    -4.04140   0.34870  -0.07400    14    13    20    15
 C    -3.60780  -0.53050  -1.06210    15    16     8    14
 C    -3.35540  -1.70800  -0.49130    16    15    21    17
 C    -2.15380  -2.32090  -0.72630    17    16    19    45
 C     0.07000  -2.30870  -1.52020    18    19     9    49
 C    -1.20380  -1.83210  -1.65700    19    18    17     7
 C    -3.79720  -0.30500   1.09520    20    21    14    22
 C    -3.57520  -1.61490   0.83680    21    34    16    20
 C    -2.66140   0.13320   1.78820    22    20    23    27
 C    -2.02990   1.37800   1.60730    23    22    30    24
 C    -2.55080   2.18580   0.52500    24    13    25    23
 C    -1.60490   2.87380  -0.21920    25    26    24     1
 C    -0.42530   3.29830   0.22780    26    25    37    31
 C    -1.83480  -0.99490   2.00170    27    34    28    22
 C    -0.44270  -0.92670   2.16950    28    27    29    35
 C     0.19020   0.36970   2.26670    29    28    33    30
 C    -0.64800   1.52620   1.92940    30    31    23    29
 C     0.05270   2.60550   1.35990    31    40    30    26
 C     2.37980  -0.70520   1.80030    32    33    36    41
 C     1.62550   0.43930   2.06310    33    32    39    29
 C    -2.46180  -2.07850   1.39590    34    21    45    27
 C     0.34670  -2.04260   1.68930    35    36    28    46
 C     1.74460  -1.93230   1.59680    36    47    32    35
 C     0.69520   3.43600  -0.55350    37    38    26     3
 C     1.80420   3.28910   0.15040    38    37    40    10
 C     2.19490   1.60550   1.53260    39    40    33    43
 C     1.40100   2.65090   1.25340    40    38    39    31
 C     3.55130  -0.71210   1.02270    41    44    42    32
 C     3.67810   0.38310   0.19050    42    43    41    50
 C     3.21310   1.59070   0.54500    43    42    10    39
 C     3.56760  -1.85710   0.34050    44    41    51    47
 C    -1.64270  -2.74220   0.52890    45    46    34    17
 C    -0.30280  -2.90150   0.70520    46    45    49    35
 C     2.53880  -2.66290   0.71250    47    48    44    36
 C     1.83080  -3.02780  -0.37910    48    49    47    52
 C     0.49780  -3.10350  -0.42460    49    48    46    18
 C     3.31840  -0.14740  -1.07710    50    51    42    12
 C     3.34580  -1.50400  -0.94710    51    52    44    50
 C     2.28380  -2.18890  -1.35680    52    51     9    48
