    52
C52-C2-323                                                                      
 C     3.34860  -1.02110   0.95420     1     5     3     2
 C     3.82670   0.12860   0.34290     2    10    24     1
 C     2.72120  -1.97230   0.17820     3     1     8     6
 C     1.41600  -1.09740   2.42700     4     5    34     7
 C     2.63270  -0.59960   2.03610     5    25     1     4
 C     1.50530  -2.57090   0.61570     6    14     7     3
 C     0.76580  -2.16670   1.76130     7     4     6    13
 C     2.56190  -1.74920  -1.20950     8    11     9     3
 C     2.88950  -0.52630  -1.76550     9    10     8    20
 C     3.55010   0.37010  -0.96090    10    16     2     9
 C     1.37660  -2.27900  -1.53910    11     8    14    18
 C    -1.36160  -1.16890   2.41660    12    48    33    13
 C    -0.68370  -2.21090   1.71250    13    12     7    51
 C     0.77200  -2.85030  -0.48900    14    11    52     6
 C     1.94250   1.47350  -2.00180    15    17    16    20
 C     2.91170   1.55440  -1.05330    16    10    15    23
 C     0.79910   2.17960  -1.84380    17    15    30    21
 C     0.41830  -1.72570  -2.34230    18    11    45    19
 C     0.58600  -0.40490  -2.81760    19    18    20    31
 C     1.86310   0.15250  -2.47880    20    15     9    19
 C     0.56660   2.81170  -0.59750    21    26    22    17
 C     1.41560   2.62400   0.50710    22    21    23    27
 C     2.69490   2.08800   0.21410    23    24    16    22
 C     3.32770   1.20680   1.05540    24    25    23     2
 C     2.62470   0.75620   2.09450    25    24     5    28
 C    -0.77400   2.82050  -0.48160    26    21    29    36
 C     0.69520   2.19830   1.72080    27    28    37    22
 C     1.37970   1.17070   2.44300    28    25    34    27
 C    -1.38820   2.27430  -1.54820    29    44    26    30
 C    -0.41920   1.72840  -2.34390    30    29    17    31
 C    -0.60040   0.40710  -2.81410    31    30    32    19
 C    -1.87950  -0.14220  -2.46640    32    47    43    31
 C    -0.66020  -0.02100   2.81200    33    34    35    12
 C     0.67460   0.02280   2.82230    34    33    28     4
 C    -1.39970   1.09780   2.41810    35    38    33    37
 C    -1.51300   2.57030   0.62240    36    26    37    39
 C    -0.75670   2.16780   1.75190    37    35    36    27
 C    -2.61750   0.61930   2.01370    38    48    41    35
 C    -2.72830   1.98630   0.17490    39    41    44    36
 C    -3.83730  -0.13310   0.34330    40    42    49    41
 C    -3.36170   1.02320   0.93940    41    38    39    40
 C    -3.57070  -0.35550  -0.96770    42    40    46    43
 C    -2.92110   0.54450  -1.77480    43    42    44    32
 C    -2.58740   1.76190  -1.21860    44    29    43    39
 C    -0.79750  -2.18240  -1.83670    45    47    18    52
 C    -2.90670  -1.54270  -1.03970    46    47    42    50
 C    -1.93610  -1.46190  -1.98500    47    45    46    32
 C    -2.59910  -0.73920   2.05260    48    49    38    12
 C    -3.31440  -1.21300   1.03200    49    48    50    40
 C    -2.68310  -2.10820   0.21360    50    49    46    51
 C    -1.40490  -2.64920   0.50480    51    52    50    13
 C    -0.56600  -2.84370  -0.60120    52    14    51    45
