    52
C52-C1-147                                                                      
 C    -2.90470  -0.22730   1.58530     1     2     5    22
 C    -2.89940   1.13670   1.55410     2     6    13     1
 C    -0.38580  -2.67890   1.30220     3     9     4    39
 C    -1.62830  -2.18580   1.47070     4     3     5    37
 C    -1.76070  -0.92430   2.03500     5     4     1    11
 C    -3.68310   1.61200   0.57120     6     2    15     8
 C    -1.70440   2.71110   0.62820     7     8    19    13
 C    -2.86820   2.48510  -0.07240     8    17     6     7
 C     0.77320  -2.11720   1.67620     9     3    48    10
 C     0.79830  -0.84540   2.28820    10     9    51    11
 C    -0.52750  -0.21410   2.40740    11    12     5    10
 C    -0.55860   1.21260   2.20260    12    14    13    11
 C    -1.72450   1.80050   1.71560    13     2    12     7
 C     0.62950   1.85060   1.89390    14    12    52    18
 C    -4.08080   0.54310  -0.15110    15     6    16    22
 C    -3.37410   0.76220  -1.31980    16    23    17    15
 C    -2.66320   1.91930  -1.27360    17     8    16    35
 C     0.65520   2.76300   0.80660    18    36    19    14
 C    -0.46280   2.89720   0.01420    19    18     7    34
 C    -3.20410  -1.71500  -0.20890    20    37    22    21
 C    -2.54020  -1.42220  -1.43860    21    23    25    20
 C    -3.73840  -0.63950   0.48160    22    15    20     1
 C    -2.55720  -0.14830  -1.90450    23    16    21    24
 C    -1.34610   0.43410  -2.28980    24    23    35    27
 C    -1.37540  -2.17560  -1.54560    25    38    21    26
 C    -0.12700  -1.65930  -2.02870    26    25    42    27
 C    -0.11690  -0.24550  -2.39640    27    24    28    26
 C     1.09470   0.51270  -2.27650    28    30    27    32
 C     3.43140   0.37400  -1.48010    29    33    44    30
 C     2.30680  -0.18060  -2.04870    30    29    41    28
 C     2.12210   2.25110  -0.94260    31    33    36    32
 C     1.00250   1.86940  -1.71260    32    31    34    28
 C     3.28740   1.54800  -0.86290    33    29    31    45
 C    -0.28130   2.36570  -1.34150    34    35    32    19
 C    -1.42670   1.76090  -1.83290    35    17    34    24
 C     1.90040   2.65800   0.34790    36    18    47    31
 C    -2.34370  -2.58750   0.34190    37    20    38     4
 C    -1.39820  -3.07060  -0.50240    38    39    37    25
 C    -0.24590  -3.29550   0.09880    39    38    40     3
 C     0.98940  -3.01040  -0.33300    40    39    48    42
 C     2.29260  -1.51540  -1.61910    41    42    30    43
 C     1.10480  -2.21370  -1.51590    42    41    40    26
 C     3.33100  -1.60390  -0.67060    43    44    49    41
 C     4.04680  -0.47780  -0.64160    44    43    29    46
 C     3.72970   1.41820   0.44060    45    47    46    33
 C     4.02530   0.09810   0.59480    46    45    44    50
 C     2.75540   1.99040   1.15280    47    45    36    52
 C     1.73300  -2.51460   0.74900    48    49     9    40
 C     2.86030  -1.81570   0.60210    49    48    43    50
 C     3.12780  -0.66680   1.35950    50    49    46    51
 C     2.02390  -0.10850   2.11100    51    52    10    50
 C     1.90390   1.28860   1.98180    52    47    14    51
