    52
C52-C1-273                                                                      
 C     3.23020  -1.61310  -0.05750     1    32     2     6
 C     3.24180  -0.72820  -1.10180     2     3     1    17
 C     2.32200  -0.90560  -2.08410     3     2     7     4
 C     1.28940  -1.86930  -1.99360     4     9     3     5
 C     1.10020  -2.62590  -0.79750     5     6     4    13
 C     2.11050  -2.42390   0.16840     6     1    35     5
 C     1.72840   0.18830  -2.63690     7    10     3    15
 C    -1.08550  -1.60390  -2.30440     8     9    11    22
 C     0.18460  -1.33660  -2.66430     9     8    10     4
 C     0.48140  -0.06610  -3.01490    10     7     9    24
 C    -1.33490  -2.43940  -1.21560    11    14     8    13
 C    -0.56620  -2.63980   1.00900    12    34    50    13
 C    -0.26180  -2.84130  -0.38260    13    11    12     5
 C    -2.54800  -2.05840  -0.72530    14    11    52    45
 C     1.81930   1.45470  -2.12960    15     7    16    19
 C     2.63340   1.65940  -0.98870    16    18    15    17
 C     3.41010   0.56980  -0.52200    17    27    16     2
 C     1.99710   2.43470  -0.00440    18    21    16    25
 C     0.49570   1.96950  -2.27860    19    20    24    15
 C    -0.03810   2.76290  -1.30970    20    19    21    49
 C     0.76230   2.96640  -0.22090    21    31    18    20
 C    -2.07600  -0.58620  -2.31060    22    45     8    23
 C    -1.69910   0.79510  -2.41830    23    24    22    48
 C    -0.35800   0.99300  -2.81920    24    10    19    23
 C     1.98230   2.02300   1.35380    25    26    28    18
 C     2.71660   0.94450   1.72920    26    25    27    37
 C     3.56610   0.32230   0.83930    27    32    26    17
 C     0.68240   2.23750   1.82950    28    31    25    29
 C    -0.02850   1.26380   2.57360    29    28    30    36
 C    -1.43380   1.24190   2.34870    30    40    44    29
 C     0.00300   2.92810   0.86540    31    21    42    28
 C     3.51740  -0.97950   1.08390    32    33    27     1
 C     2.60000  -1.25410   1.99940    33    32    35    37
 C     0.44350  -2.20600   1.85520    34    35    12    38
 C     1.75390  -2.20950   1.51520    35    34    33     6
 C     0.68540   0.04000   2.81130    36    37    38    29
 C     2.05090  -0.06600   2.47260    37    33    36    26
 C    -0.10520  -1.13880   2.60020    38    41    34    36
 C    -3.25830   0.18800   1.53320    39    51    43    40
 C    -2.18240   0.05810   2.37700    40    39    41    30
 C    -1.46710  -1.12860   2.37350    41    38    40    50
 C    -1.29540   2.79230   0.54080    42    31    44    49
 C    -3.09970   1.35030   0.84200    43    44    39    47
 C    -2.07290   2.04840   1.36760    44    43    42    30
 C    -3.01120  -0.97460  -1.41510    45    46    22    14
 C    -3.65460  -0.17160  -0.56290    46    45    51    47
 C    -3.25330   1.14970  -0.52730    47    46    43    48
 C    -2.27940   1.68760  -1.42390    48    49    47    23
 C    -1.36430   2.62710  -0.86780    49    20    42    48
 C    -1.80430  -2.12200   1.43080    50    52    12    41
 C    -3.64200  -0.77990   0.67170    51    39    52    46
 C    -2.88930  -1.92490   0.59020    52    14    51    50
