    52
C52-C1-18                                                                       
 C    -2.57010   1.49040  -1.60320     1     2    17    42
 C    -2.35800   0.25210  -2.11790     2     1     3    21
 C    -3.10300  -0.78910  -1.64400     3     4     2    30
 C    -2.27490  -1.85400  -1.61500     4     5     3     6
 C    -2.50570  -2.57130  -0.52260     5     4     7    23
 C    -1.01780  -1.53400  -2.03700     6     4     9    21
 C    -1.37240  -2.85860   0.20280     7    25     5     8
 C    -0.02980  -2.74850  -0.21060     8     7    27     9
 C     0.15760  -2.05340  -1.48460     9     6    10     8
 C     1.37660  -1.40100  -1.72330    10    12     9    14
 C     3.66770  -1.02760  -0.89690    11    15    47    12
 C     2.49920  -1.73970  -0.96940    12    11    10    26
 C     2.46520   0.73060  -1.80480    13    15    14    22
 C     1.34240  -0.01770  -2.17150    14    13    20    10
 C     3.66110   0.25400  -1.33920    15    11    13    49
 C    -1.70820   2.91210  -0.17230    16    43    50    17
 C    -1.41960   2.25640  -1.35050    17    16     1    19
 C     0.98890   2.36310  -0.88880    18    22    19    51
 C    -0.10350   1.89580  -1.69090    19    17    18    20
 C     0.08530   0.60200  -2.30070    20    21    14    19
 C    -1.06420  -0.18110  -2.39770    21     2    20     6
 C     2.28230   1.93610  -1.11390    22    18    52    13
 C    -3.50160  -1.86490   0.14380    23    24     5    30
 C    -2.89760  -1.65330   1.34320    24    25    31    23
 C    -1.68240  -2.25150   1.38680    25    40    24     7
 C     2.32180  -2.25970   0.31570    26    27    41    12
 C     1.01890  -2.46760   0.72590    27    26     8    39
 C    -4.02030   0.52190   0.04930    28    30    42    29
 C    -3.38580   0.64910   1.33510    29    32    31    28
 C    -3.95400  -0.74030  -0.54700    30     3    23    28
 C    -2.75250  -0.42910   1.91080    31    24    29    33
 C    -2.69780   1.83500   1.35580    32    43    29    38
 C    -1.41230  -0.32790   2.34830    33    40    37    31
 C     2.76610  -0.60670   1.71580    34    44    41    35
 C     1.43330  -0.51690   2.09450    35    34    39    36
 C     0.75910   0.76720   2.11760    36    37    46    35
 C    -0.65080   0.84740   2.26000    37    38    33    36
 C    -1.36080   1.91920   1.71490    38    32    50    37
 C     0.58840  -1.63960   1.84100    39    40    35    27
 C    -0.75920  -1.52430   2.05460    40    25    39    33
 C     3.34710  -1.65490   1.01910    41    47    26    34
 C    -3.53430   1.67670  -0.59710    42    43     1    28
 C    -2.92350   2.51800   0.22730    43    42    32    16
 C     3.51990   0.47840   1.33910    44    34    45    48
 C     2.77480   1.57740   0.98160    45    44    46    52
 C     1.45100   1.78150   1.34570    46    45    51    36
 C     4.35310  -1.09340   0.28080    47    48    11    41
 C     4.61800   0.21810   0.54120    48    47    49    44
 C     4.34270   1.08180  -0.48040    49    52    48    15
 C    -0.71970   2.71330   0.76210    50    51    16    38
 C     0.61180   2.56110   0.49320    51    50    46    18
 C     3.34570   1.97090  -0.22340    52    49    22    45
