    52
C52-C2-110                                                                      
 C     4.33750  -0.39900  -0.66450     1    26     6     2
 C     4.21630   0.88710  -0.16660     2    39     8     1
 C     0.47910   2.37540   0.99650     3     4    42    18
 C     1.82720   2.23310   0.72950     4     3     7    38
 C     2.91880   0.68520  -1.92710     5     6     8    12
 C     3.46820  -0.52120  -1.71320     6     5     1    11
 C     2.23300   2.23850  -0.61850     7     8     4    20
 C     3.35840   1.55960  -0.99140     8     5     7     2
 C     1.76390  -2.33540   0.52310     9    17    10    27
 C     2.85670  -1.99820  -0.24550    10     9    26    11
 C     2.52850  -1.50180  -1.52750    11     6    10    14
 C     1.61120   0.87980  -2.23980    12     5    20    13
 C     0.68570  -0.15010  -2.47330    13    12    22    14
 C     1.17600  -1.43330  -1.95930    14    16    11    13
 C    -1.17030  -1.95150  -1.50680    15    16    23    37
 C     0.17310  -2.17380  -1.27830    16    15    17    14
 C     0.50140  -2.56480   0.03550    17     9    34    16
 C    -0.50300   2.56300   0.01340    18    50     3    19
 C    -0.17810   2.18280  -1.30550    19    20    18    21
 C     1.17030   1.98770  -1.51740    20    19    12     7
 C    -1.19190   1.43400  -1.97680    21    19    52    22
 C    -0.70070   0.14540  -2.48350    22    23    13    21
 C    -1.63450  -0.87980  -2.27660    23    49    15    22
 C     3.60270  -0.57880   1.41070    24    25    39    26
 C     2.45130  -0.76820   2.12310    25    24    27    41
 C     3.92720  -1.27960   0.27610    26     1    24    10
 C     1.56840  -1.76420   1.78390    27    25    28     9
 C     0.21460  -1.72130   2.01420    28    27    34    29
 C    -0.41590  -0.58080   2.55480    29    30    28    40
 C    -1.80220  -0.47550   2.32990    30    44    29    32
 C    -3.71160  -0.76240   1.10120    31    43    35    32
 C    -2.57070  -1.39520   1.58010    32    31    33    30
 C    -1.82520  -2.25560   0.75610    33    34    37    32
 C    -0.48120  -2.41020   1.01620    34    33    17    28
 C    -4.21850  -0.86410  -0.16650    35    36    31    47
 C    -3.32580  -1.50190  -0.97880    36    49    35    37
 C    -2.21380  -2.19670  -0.59050    37    36    33    15
 C     2.56720   1.36540   1.56510    38    39    41     4
 C     3.71560   0.75210   1.09720    39     2    24    38
 C     0.43100   0.58220   2.55520    40    41    42    29
 C     1.81350   0.46110   2.34080    41    25    40    38
 C    -0.21380   1.70640   2.01020    42    45     3    40
 C    -3.56640   0.56300   1.39580    43    44    31    46
 C    -2.42540   0.75850   2.11110    44    43    45    30
 C    -1.56090   1.76170   1.76520    45    44    42    50
 C    -3.90910   1.25190   0.24930    46    47    43    51
 C    -4.36880   0.39490  -0.70040    47    46    48    35
 C    -3.51460   0.53450  -1.76270    48    49    47    52
 C    -2.94260  -0.66920  -1.97910    49    48    36    23
 C    -1.76120   2.34360   0.51490    50    18    51    45
 C    -2.84180   1.98720  -0.25560    51    50    46    52
 C    -2.55040   1.50150  -1.54030    52    48    51    21
