    52
C52-C1-259                                                                      
 C    -3.43230  -0.95790  -0.46520     1    35     4     2
 C    -2.55970  -1.86950  -1.02010     2     1     7    33
 C    -0.12370  -3.04810  -1.05650     3     9    31     8
 C    -3.32910   0.38130  -0.72070     4     1     5    39
 C    -2.44210   0.82600  -1.68580     5    51     4     6
 C    -1.57600  -0.09720  -2.29990     6     5     7    15
 C    -1.62100  -1.47250  -2.00090     7     8     6     2
 C    -0.39380  -2.11450  -2.02770     8     3     7    17
 C     1.16290  -2.99880  -0.73970     9     3    12    10
 C     1.31410  -2.96420   0.62250    10    11     9    20
 C     2.33130  -2.21670   1.10360    11    10    14    21
 C     1.82790  -2.11050  -1.54200    12    13     9    17
 C     2.91350  -1.46160  -1.04530    13    12    14    48
 C     3.33480  -1.70790   0.26630    14    30    13    11
 C    -0.35820   0.56620  -2.55880    15    44     6    16
 C     0.90520  -0.08280  -2.52730    16    17    15    47
 C     0.83280  -1.47220  -2.29260    17    12     8    16
 C    -1.72480  -1.51040   1.99760    18    32    19    26
 C    -0.37030  -1.86990   2.02430    19    18    20    22
 C     0.00480  -2.89680   1.09250    20    10    31    19
 C     1.96390  -1.16870   1.96420    21    28    11    22
 C     0.63270  -0.88720   2.35650    22    21    19    24
 C     1.22940   1.51530   1.99890    23    27    29    24
 C     0.23910   0.52460   2.44080    24    25    22    23
 C    -1.17120   0.84150   2.29170    25    26    37    24
 C    -2.12870  -0.16630   2.15260    26    25    34    18
 C     0.77020   2.67200   1.37500    27    36    23    42
 C     2.87680  -0.19630   1.66910    28    30    29    21
 C     2.49000   1.09110   1.56380    29    28    23    40
 C     3.75180  -0.53670   0.70760    30    14    43    28
 C    -0.90750  -3.18390   0.05000    31    33     3    20
 C    -2.68750  -2.09890   1.17060    32    35    33    18
 C    -2.16670  -2.70210   0.05910    33    31    32     2
 C    -3.32180   0.01490   1.43430    34    35    39    26
 C    -3.56400  -1.15720   0.85590    35    32    34     1
 C    -0.55280   2.88870   1.21700    36    37    27    49
 C    -1.52130   2.05290   1.62620    37    36    38    25
 C    -2.55010   2.14130   0.65560    38    39    50    37
 C    -3.34870   1.04630   0.52520    39    38    34     4
 C     3.12560   1.56370   0.37410    40    41    43    29
 C     2.36580   2.43360  -0.33840    41    42    40    46
 C     1.37120   3.16300   0.21290    42    52    41    27
 C     3.69590   0.45380  -0.18790    43    30    40    48
 C    -0.52620   1.88440  -2.13810    44    45    15    51
 C     0.56210   2.60170  -1.67050    45    52    44    46
 C     1.80090   1.95670  -1.55660    46    45    47    41
 C     2.04600   0.62960  -2.00590    47    48    46    16
 C     3.05640  -0.08310  -1.30850    48    43    13    47
 C    -0.82560   3.44790   0.00150    49    52    50    36
 C    -1.96110   2.82570  -0.42090    50    49    51    38
 C    -1.80380   2.04010  -1.57070    51     5    50    44
 C     0.36150   3.47280  -0.62580    52    49    42    45
