    52
C52-C2-417                                                                      
 C     2.72010  -0.17050  -1.80610     1     3     2     6
 C     3.54000  -0.08810  -0.69460     2    31     1     7
 C     2.00220   0.92570  -2.19540     3     1    10    52
 C    -0.03040  -2.56590  -1.61440     4    35    48     5
 C     0.74380  -1.58000  -2.27980     5     4     6    51
 C     2.08730  -1.42250  -1.80300     6     1    32     5
 C     3.44400   1.02250   0.14980     7     9     8     2
 C     3.13540   0.43700   1.35880     8    33    13     7
 C     2.69350   2.10660  -0.20450     9     7    10    11
 C     2.08210   2.06070  -1.43470    10    18     3     9
 C     1.70430   2.66730   0.63110    11     9    15    12
 C     1.36580   1.99930   1.85330    12    14    13    11
 C     2.07230   0.82870   2.14140    13     8    12    21
 C     0.01100   2.00310   2.18210    14    17    12    19
 C     0.64520   3.15040  -0.18340    15    16    18    11
 C    -0.65960   3.14630   0.19500    16    15    17    47
 C    -0.93130   2.67120   1.43980    17    30    16    14
 C     0.90810   2.66340  -1.42740    18    10    15    44
 C    -0.66720   0.83650   2.63460    19    24    20    14
 C     0.00240  -0.40460   2.72210    20    19    21    27
 C     1.40670  -0.36540   2.53090    21    22    20    13
 C     2.11790  -1.42660   1.95000    22    33    23    21
 C     1.39640  -2.46140   1.41100    23    22    28    34
 C    -1.99770   0.93930   2.20430    24    25    30    19
 C    -2.70480  -0.16100   1.80970    25    24    29    26
 C    -2.07440  -1.41430   1.80370    26    25    38    27
 C    -0.72880  -1.57520   2.27490    27    28    26    20
 C     0.02320  -2.57390   1.60760    28    36    23    27
 C    -3.52080  -0.08050   0.69530    29    37    25    43
 C    -2.11430   2.08080   1.45570    30    17    24    41
 C     3.44720  -1.25890  -0.02970    31     2    33    32
 C     2.60180  -2.11610  -0.66810    32    31    34     6
 C     3.17800  -0.91200   1.25660    33     8    31    22
 C     1.67800  -2.82240   0.06190    34    35    32    23
 C     0.47430  -3.10890  -0.45040    35    36    34     4
 C    -0.50310  -3.12940   0.46360    36    35    39    28
 C    -3.42500  -1.24890   0.03030    37    29    38    40
 C    -2.59260  -2.11470   0.67160    38    37    39    26
 C    -1.69460  -2.83900  -0.07450    39    36    38    48
 C    -3.16230  -0.91040  -1.26700    40    42    49    37
 C    -2.71710   2.11580   0.22060    41    43    30    47
 C    -3.13590   0.43880  -1.36500    42    40    43    45
 C    -3.43920   1.02050  -0.16080    43    41    42    29
 C    -0.01350   1.98520  -2.18560    44    18    46    52
 C    -2.06770   0.82590  -2.14400    45    42    46    50
 C    -1.36550   2.00030  -1.84050    46    44    45    47
 C    -1.71470   2.66690  -0.61900    47    16    41    46
 C    -1.40970  -2.46950  -1.41790    48    49     4    39
 C    -2.10800  -1.42110  -1.96230    49    40    48    50
 C    -1.39360  -0.36580  -2.54930    50    49    51    45
 C     0.01320  -0.41070  -2.73340    51    52    50     5
 C     0.67590   0.82870  -2.64160    52     3    51    44
