    52
C52-C1-379                                                                      
 C     2.36390  -2.18050  -0.61710     1     3    13    28
 C     3.47650  -0.25850   0.15440     2     5    33     3
 C     3.04940  -1.55290   0.37820     3     1     7     2
 C     2.75580   1.67970   0.91990     4     5    39     6
 C     3.24860   0.46790   1.28230     5     8     4     2
 C     1.61230   2.12380   1.60540     6    51     4     9
 C     2.50580  -1.55230   1.64380     7     8    11     3
 C     2.63500  -0.32240   2.18330     8     5     7    10
 C     0.94980   1.27780   2.52680     9    10    24     6
 C     1.45840   0.01240   2.76640    10     8     9    17
 C     1.26590  -2.07000   1.93530    11     7    12    17
 C     0.58120  -2.82780   0.98300    12    11    14    13
 C     1.18020  -2.89190  -0.30400    13    20     1    12
 C    -0.82010  -2.74820   1.02020    14    12    15    18
 C    -1.52300  -1.89700   1.90610    15    23    14    16
 C    -0.81820  -0.90800   2.65090    16    17    15    25
 C     0.57880  -1.07380   2.69800    17    10    16    11
 C    -1.60740  -2.76630  -0.16320    18    21    19    14
 C    -0.97770  -2.65050  -1.36400    19    20    18    36
 C     0.36710  -2.77430  -1.38910    20    27    19    13
 C    -2.70860  -2.03250   0.03820    21    18    23    34
 C    -3.27260  -0.39170   1.36480    22    23    26    41
 C    -2.71710  -1.59310   1.32190    23    22    21    15
 C    -0.41750   1.49250   2.44870    24     9    46    25
 C    -1.38270   0.44260   2.61880    25    26    24    16
 C    -2.62420   0.65350   1.96620    26    22    48    25
 C     0.91110  -1.93890  -2.26800    27    20    29    28
 C     2.13620  -1.49990  -1.84360    28    27    32     1
 C    -0.09420  -1.18360  -2.80390    29    30    27    36
 C     0.17540   0.13080  -3.01490    30    29    45    31
 C     1.46410   0.62260  -2.66210    31    37    32    30
 C     2.47970  -0.14160  -2.03240    32    28    31    33
 C     3.16710   0.49100  -0.96180    33     2    32    39
 C    -3.16440  -1.02230  -0.79760    34    41    21    35
 C    -2.37190  -0.67570  -1.93310    35    34    36    44
 C    -1.31990  -1.59340  -2.24580    36    29    19    35
 C     1.21120   1.88660  -2.20330    37    40    38    31
 C     1.78950   2.46920  -1.11310    38    37    39    50
 C     2.78580   1.77320  -0.47740    39    38     4    33
 C    -0.10860   2.14090  -2.23720    40    37    49    45
 C    -3.61220  -0.05950   0.06970    41    42    34    22
 C    -3.27530   1.21240  -0.09350    42    41    48    43
 C    -2.54450   1.66010  -1.16190    43    42    52    44
 C    -2.07730   0.73450  -2.16070    44    45    43    35
 C    -0.81880   1.06520  -2.71200    45    40    30    44
 C    -0.60570   2.54250   1.51490    46    47    51    24
 C    -1.76860   2.56220   0.76620    47    48    46    52
 C    -2.74370   1.69120   1.06290    48    47    42    26
 C    -0.44940   2.90160  -1.17100    49    40    52    50
 C     0.72060   3.06660  -0.41950    50    51    49    38
 C     0.62970   2.85370   0.95500    51     6    46    50
 C    -1.67720   2.65530  -0.62750    52    49    47    43
