    52
C52-Cs-43                                                                       
 C    -3.88780  -0.25550   1.03740     1     2    37     6
 C    -3.32710  -1.40410   0.63720     2     1     5    24
 C    -0.27130  -2.79060   0.00250     3     4    17    11
 C    -1.57260  -2.50400  -0.02330     4     3     5    23
 C    -2.17530  -1.93870   1.09740     5     2     4     8
 C    -2.94010   0.52310   1.70190     6    12     1     7
 C    -1.70080   0.07680   2.22540     7     6    13     8
 C    -1.32290  -1.32000   2.04830     8     5    10     7
 C     1.04470  -0.83080   2.53100     9    10    14    48
 C     0.04080  -1.71640   2.10510    10     9    11     8
 C     0.53220  -2.59270   1.11540    11    21     3    10
 C    -3.04370   1.72990   1.02880    12    36    50     6
 C    -0.59700   0.99720   2.27000    13    14     7    51
 C     0.67860   0.52660   2.55700    14    52    13     9
 C     1.01970  -0.84220  -2.52850    15    28    16    20
 C     0.01830  -1.72910  -2.11090    16    15    17    22
 C     0.52090  -2.58700  -1.11390    17    18     3    16
 C     1.80250  -2.49820  -0.65980    18    21    19    17
 C     2.78620  -1.69600  -1.12050    19    18    20    44
 C     2.40030  -0.86390  -2.16320    20    35    19    15
 C     1.82380  -2.51680   0.68210    21    18    49    11
 C    -1.35660  -1.35140  -2.06010    22    23    16    25
 C    -2.23220  -1.99610  -1.14380    23    24     4    22
 C    -3.39970  -1.45300  -0.72130    24    27    23     2
 C    -1.72590   0.05400  -2.22770    25    26    29    22
 C    -2.97290   0.48430  -1.70490    26    30    27    25
 C    -3.96780  -0.29040  -1.09680    27    24    37    26
 C     0.66020   0.51160  -2.55470    28    31    29    15
 C    -0.61440   0.96900  -2.26110    29    28    25    32
 C    -3.01470   1.67980  -1.00670    30    33    36    26
 C     1.78600   1.19240  -2.23540    31    28    35    39
 C    -0.64420   2.11440  -1.34930    32    33    40    29
 C    -1.83150   2.26460  -0.67670    33    30    32    50
 C     3.64350   0.88880  -1.10830    34    35    38    46
 C     2.87620   0.40070  -2.10020    35    34    20    31
 C    -3.92710   1.58920   0.00210    36    37    12    30
 C    -4.49830   0.39760  -0.01640    37    36     1    27
 C     2.99280   2.01960  -0.65710    38    41    39    34
 C     1.79690   2.20130  -1.31790    39    31    38    40
 C     0.57290   2.52760  -0.72010    40    39    32    43
 C     3.00850   2.01220   0.66880    41    38    45    42
 C     1.80500   2.19030   1.31970    42    52    41    43
 C     0.57060   2.54100   0.74270    43    42    51    40
 C     3.51600  -1.20220   0.00230    44    46    19    49
 C     3.67390   0.89770   1.12200    45    47    41    46
 C     3.98910   0.12840   0.00950    46    45    34    44
 C     2.90210   0.39570   2.11560    47    52    45    48
 C     2.43360  -0.87780   2.17610    48    47    49     9
 C     2.81280  -1.71660   1.14120    49    21    48    44
 C    -1.84710   2.31700   0.72230    50    12    51    33
 C    -0.65210   2.15780   1.37840    51    50    43    13
 C     1.81320   1.18840   2.24210    52    14    47    42
