    52
C52-C1-122                                                                      
 C     1.69140   2.34570   0.89450     1     2     6    40
 C     2.93570   1.98260   0.54060     2     1     4    32
 C     4.14990   0.71770  -0.69880     3     4     7    31
 C     3.33190   1.80060  -0.74110     4     2     3    21
 C    -0.54340   2.84670   0.40180     5    22     6    41
 C     0.74170   2.73740  -0.04350     6     5     1    20
 C     3.49950  -0.16480  -1.50280     7     8     3    13
 C     3.35320  -1.29800  -0.80010     8     9     7    30
 C     2.26530  -2.06990  -0.89940     9     8    24    10
 C     1.19000  -1.78600  -1.78590    10    11     9    17
 C    -0.02040  -2.38230  -1.50850    11    10    12    19
 C    -0.17070  -3.05480  -0.31440    12    29    23    11
 C     2.32870   0.33160  -2.05530    13     7    21    17
 C    -1.44030   2.06920  -1.54900    14    49    22    15
 C    -0.19140   1.60300  -1.96760    15    14    20    16
 C    -0.13570   0.20040  -2.40770    16    17    18    15
 C     1.15810  -0.43210  -2.29630    17    13    16    10
 C    -1.38240  -0.55830  -2.28840    18    50    19    16
 C    -1.28160  -1.88020  -1.79440    19    11    18    46
 C     0.97790   2.18240  -1.37290    20    21    15     6
 C     2.24220   1.64810  -1.58750    21     4    20    13
 C    -1.62390   2.81430  -0.40060    22     5    51    14
 C     0.71610  -2.82720   0.67950    23    24    12    26
 C     1.96360  -2.44620   0.41640    24    23    33     9
 C    -2.31400  -1.51400   1.67480    25    27    28    37
 C    -0.04240  -2.25710   1.69320    26    23    27    34
 C    -1.37690  -2.42580   1.34830    27    25    29    26
 C    -3.36030  -1.25440   0.81390    28    42    25    48
 C    -1.43480  -2.94290   0.06720    29    12    46    27
 C     3.74320  -1.07950   0.49650    30    31     8    33
 C     4.21670   0.18900   0.57680    31    32    30     3
 C     3.38670   0.96020   1.31880    32    31     2    36
 C     2.69530  -1.61280   1.24260    33    24    30    35
 C     0.48700  -1.09010   2.32100    34    26    35    38
 C     1.88830  -0.79680   2.11480    35    36    33    34
 C     2.28340   0.55750   2.05580    36    32    40    35
 C    -1.89650  -0.28900   2.20840    37    25    43    38
 C    -0.51110  -0.03740   2.47800    38    39    37    34
 C    -0.07540   1.29790   2.19140    39    40    41    38
 C     1.27010   1.50760   1.94770    40    39    36     1
 C    -0.99560   2.15640   1.55250    41    44    39     5
 C    -3.73240   0.03830   0.91430    42    28    45    43
 C    -2.81350   0.67200   1.73950    43    44    42    37
 C    -2.35140   1.91460   1.37020    44    43    41    51
 C    -4.07050   0.50670  -0.33780    45    52    42    47
 C    -2.24870  -2.39020  -0.88110    46    48    29    19
 C    -3.61660  -0.48180  -1.18790    47    48    45    50
 C    -3.33160  -1.64010  -0.52670    48    47    46    28
 C    -2.61450   1.38630  -1.64160    49    50    14    52
 C    -2.60580   0.07270  -1.97580    50    49    47    18
 C    -2.80010   2.46800   0.17620    51    52    22    44
 C    -3.53570   1.70810  -0.66610    52    51    45    49
