    52
C52-C2-422                                                                      
 C    -2.05960  -0.90250  -2.26060     1     2     3    35
 C    -3.06940  -0.40350  -1.50340     2     1    30     7
 C    -1.10980  -0.04360  -2.78250     3     1    51     8
 C    -3.39740   0.79650   0.26280     4    32     5     7
 C    -2.70030   1.47290   1.22610     5     4     6    13
 C    -1.84170   2.47400   0.83150     6     5    14    10
 C    -3.10390   0.91810  -1.09260     7     2     4     9
 C    -1.14180   1.32500  -2.44200     8     3    46     9
 C    -2.12680   1.82780  -1.52100     9     7    10     8
 C    -1.58730   2.69680  -0.54670    10    16     9     6
 C    -1.03580   0.65550   2.75790    11    20    13    12
 C    -0.20870   1.73730   2.45360    12    14    11    28
 C    -2.29730   0.52830   2.18230    13    11    19     5
 C    -0.62810   2.64890   1.50570    14    15    12     6
 C     0.28270   3.05620   0.59530    15    16    14    26
 C    -0.27940   3.08880  -0.62180    16    15    47    10
 C    -1.87710  -1.79030   1.79300    17    18    19    33
 C    -0.63150  -1.67290   2.40510    18    22    17    20
 C    -2.77470  -0.71480   1.75900    19    32    13    17
 C    -0.21350  -0.44410   2.92900    20    11    21    18
 C     1.10930  -0.04750   2.80990    21    24    20    28
 C     0.29490  -2.45330   1.72350    22    23    18    34
 C     1.63640  -2.10420   1.68000    23    22    39    24
 C     2.05600  -0.90380   2.28000    24    25    21    23
 C     3.05680  -0.40250   1.51120    25    24    38    29
 C     1.59360   2.66960   0.53370    26    15    27    42
 C     2.11360   1.80790   1.53290    27    29    26    28
 C     1.13820   1.31860   2.46350    28    21    12    27
 C     3.09480   0.91000   1.08230    29    25    44    27
 C    -3.31390  -1.26120  -0.47040    30    32     2    31
 C    -2.39270  -2.27530  -0.50950    31    30    33    35
 C    -3.51040  -0.51630   0.62490    32    30    19     4
 C    -1.68840  -2.60360   0.65150    33    34    31    17
 C    -0.34990  -2.97330   0.60340    34    33    22    37
 C    -1.63340  -2.10690  -1.67650    35    36    31     1
 C    -0.29360  -2.45850  -1.71960    36    35    37    50
 C     0.36410  -2.97110  -0.60200    37    40    36    34
 C     3.29620  -1.25280   0.47480    38    41    25    39
 C     2.39070  -2.27840   0.51380    39    38    40    23
 C     1.70260  -2.60310  -0.65850    40    37    39    49
 C     3.49280  -0.50910  -0.62970    41    38    52    44
 C     1.86090   2.49790  -0.85100    42    43    47    26
 C     2.71470   1.49060  -1.23050    43    44    42    48
 C     3.39940   0.80650  -0.27110    44    43    41    29
 C     1.02760   0.66030  -2.74040    45    51    46    48
 C     0.20630   1.75050  -2.44410    46    47    45     8
 C     0.64380   2.68520  -1.52580    47    16    46    42
 C     2.29800   0.53340  -2.17300    48    45    52    43
 C     1.87810  -1.80400  -1.81160    49    50    52    40
 C     0.63300  -1.68290  -2.41560    50    49    36    51
 C     0.21370  -0.44880  -2.91590    51    45     3    50
 C     2.76670  -0.72490  -1.76730    52    41    49    48
