    52
C52-C1-217                                                                      
 C     3.37750  -0.21620  -1.65020     1     3     2    34
 C     2.54870  -1.18010  -2.03350     2     1    36    12
 C     2.82310   0.95860  -1.89370     3     1     4     6
 C     2.91870   1.70520  -0.75610     4     5     3    24
 C     1.89670   2.55380  -0.49220     5     4    15    11
 C     1.59280   0.76170  -2.52710     6    10     3    12
 C    -2.24900  -0.92260  -2.03920     7    19    52     8
 C    -1.02750  -0.38110  -2.55470     8     7    14     9
 C    -0.84510   1.07380  -2.41950     9    21    10     8
 C     0.48960   1.58500  -2.28860    10     6    11     9
 C     0.71450   2.56750  -1.27430    11    17     5    10
 C     1.41700  -0.63260  -2.62610    12     2    14     6
 C     0.09640  -2.32320  -1.60940    13    50    37    14
 C     0.14920  -1.19790  -2.49840    14    12     8    13
 C     1.47610   2.71090   0.78870    15    18     5    22
 C    -1.59360   2.53970  -0.61570    16    17    21    29
 C    -0.32550   2.93390  -0.43520    17    16    18    11
 C     0.16400   2.96110   0.82250    18    15    17    31
 C    -3.32090  -0.18050  -1.59450    19    20    49     7
 C    -3.04610   1.09990  -1.34120    20    19    21    44
 C    -1.89800   1.70780  -1.69650    21    20    16     9
 C     1.83070   1.86420   1.79950    22    15    23    26
 C     2.79850   0.85660   1.54600    23    25    22    24
 C     3.42740   0.84580   0.26930    24    34    23     4
 C     2.45700  -0.41650   2.04800    25    28    23    32
 C     0.58480   1.64570   2.45890    26    27    31    22
 C     0.30920   0.39330   2.91090    27    28    26    48
 C     1.26060  -0.55450   2.71390    28    39    27    25
 C    -2.43030   2.15530   0.46360    29    44    16    30
 C    -1.78220   1.82770   1.69520    30    31    29    47
 C    -0.47130   2.33120   1.85350    31    18    26    30
 C     2.59620  -1.62070   1.31150    32    33    35    25
 C     3.18190  -1.55760   0.06420    33    32    34    36
 C     3.71890  -0.36110  -0.36620    34     1    33    24
 C     1.42090  -2.35470   1.52700    35    39    38    32
 C     2.43510  -2.08390  -1.01790    36     2    37    33
 C     1.20630  -2.65410  -0.80920    37    36    38    13
 C     0.70760  -2.88000   0.46290    38    35    37    43
 C     0.65510  -1.70190   2.42770    39    28    35    40
 C    -0.70250  -1.55210   2.40730    40    39    42    48
 C    -2.68670  -1.63630   1.07480    41    42    51    46
 C    -1.47030  -2.20370   1.44860    42    40    41    43
 C    -0.68340  -2.81960   0.42440    43    38    50    42
 C    -3.39470   1.36050  -0.04840    44    29    45    20
 C    -3.83500   0.19150   0.47210    45    44    49    46
 C    -3.02120  -0.30080   1.48610    46    45    47    41
 C    -2.05610   0.48370   2.18220    47    48    46    30
 C    -0.95430  -0.19510   2.73530    48    27    47    40
 C    -3.92330  -0.73230  -0.51310    49    51    45    19
 C    -1.06300  -2.60140  -0.90360    50    52    13    43
 C    -3.21430  -1.80960  -0.20620    51    49    52    41
 C    -2.26200  -2.04140  -1.17980    52    50    51     7
