    52
C52-C1-139                                                                      
 C    -3.87600   0.63260  -0.71300     1     4     2     8
 C    -3.79020  -0.68200  -0.34660     2     7     1    26
 C    -2.84840   2.25440   0.26910     3     4    33    15
 C    -3.83560   1.36140   0.42030     4     3     1    27
 C    -1.12950  -2.86980  -0.15210     5    16     6    12
 C    -2.34350  -2.30230   0.05140     6     5     7    25
 C    -2.97950  -1.58900  -0.95770     7     2     6    10
 C    -2.88100   1.07270  -1.58030     8     9     1    15
 C    -2.04760   0.18240  -2.24010     9     8    52    10
 C    -2.12590  -1.18950  -1.98970    10    11     9     7
 C    -0.85220  -1.70960  -2.15340    11    12    10    45
 C    -0.34860  -2.66630  -1.30250    12    11    21     5
 C    -0.14270   2.82870  -0.02810    13    48    32    14
 C    -0.88250   2.45170  -1.18190    14    15    13    51
 C    -2.24150   2.17350  -0.97940    15     3    14     8
 C    -0.22430  -2.86850   0.83780    16    17     5    23
 C     1.01540  -2.88270   0.36340    17    16    19    21
 C     2.97230  -1.69600   0.70720    18    19    38    20
 C     1.84520  -2.24670   1.20250    19    17    18    34
 C     3.11310  -1.52890  -0.70460    20    44    18    22
 C     1.00850  -2.69140  -0.99810    21    17    12    22
 C     1.98350  -1.83470  -1.53090    22    21    20    47
 C    -0.30490  -2.04430   1.93350    23    16    34    24
 C    -1.47360  -1.31270   2.11960    24    23    25    29
 C    -2.59320  -1.61780   1.27310    25    26     6    24
 C    -3.56450  -0.70840   1.00900    26    27    25     2
 C    -3.52370   0.55580   1.46840    27    26     4    30
 C     0.10910   0.56850   2.52250    28    31    36    29
 C    -1.27080   0.08980   2.45670    29    30    24    28
 C    -2.32400   0.95970   2.02520    30    27    33    29
 C     0.32890   1.84060   1.89570    31    32    41    28
 C    -0.69150   2.45930   1.20670    32    33    31    13
 C    -1.97790   2.12120   1.32800    33    32     3    30
 C     0.99980  -1.60630   2.13590    34    23    36    19
 C     2.54810   0.18560   2.02400    35    38    40    36
 C     1.27700  -0.27330   2.46770    36    34    35    28
 C     4.12440   0.16060   0.39830    37    38    39    44
 C     3.47560  -0.57520   1.30470    38    37    18    35
 C     3.66200   1.43080   0.47450    39    37    42    40
 C     2.69610   1.46640   1.47360    40    41    39    35
 C     1.53790   2.17410   1.31090    41    40    31    48
 C     3.20040   1.74540  -0.77200    42    43    49    39
 C     3.26500   0.63140  -1.54900    43    44    42    46
 C     3.83970  -0.35900  -0.82810    44    43    37    20
 C     0.03970  -0.71150  -2.55500    45    11    52    47
 C     2.08700   0.49200  -2.22990    46    43    47    50
 C     1.43910  -0.75100  -2.33470    47    46    45    22
 C     1.21830   2.73540   0.06210    48    13    49    41
 C     2.00130   2.34530  -0.99890    49    42    48    50
 C     1.29910   1.64760  -1.99030    50    49    51    46
 C    -0.09790   1.67110  -2.09450    51    50    52    14
 C    -0.71700   0.48230  -2.52770    52     9    51    45
