    52
C52-C1-80                                                                       
 C    -1.11710   2.68810   0.12280     1     2    37     5
 C    -2.28060   2.26330   0.65330     2     1    13    31
 C     1.35990  -0.45820  -2.59240     3    52    24     4
 C     0.49420   0.58740  -2.66250     4     3    15     8
 C    -0.80290   2.42400  -1.21930     5     7     1     6
 C    -1.63680   1.50050  -1.90320     6    14     5    15
 C     0.56680   2.48140  -1.32480     7     8     5    11
 C     1.27120   1.64940  -2.15530     8     7    51     4
 C     2.58520   1.83750   1.47360     9    44    10    35
 C     2.40520   2.35330   0.21950    10     9    11    50
 C     1.12500   2.74650  -0.07810    11    10     7    37
 C    -4.06360   0.91960   0.50220    12    16    13    29
 C    -3.30630   1.83050  -0.14970    13    12     2    14
 C    -2.89760   1.27380  -1.36000    14    17     6    13
 C    -0.89430   0.41710  -2.50690    15     4     6    18
 C    -4.23890  -0.17830  -0.22510    16    12    21    17
 C    -3.45890   0.01800  -1.33960    17    19    16    14
 C    -1.37710  -0.94010  -2.24370    18    19    25    15
 C    -2.63090  -1.04250  -1.60070    19    17    20    18
 C    -2.85840  -1.90040  -0.50550    20    22    21    19
 C    -3.67590  -1.24210   0.38280    21    16    20    28
 C    -1.77100  -2.57450  -0.08740    22    20    23    26
 C    -0.63470  -2.76840  -0.85660    23    40    22    25
 C     0.99930  -1.69260  -2.16930    24     3    25    41
 C    -0.37340  -1.95180  -1.97760    25    24    23    18
 C    -1.29170  -2.35090   1.22100    26    38    27    22
 C    -1.76560  -1.25620   1.95680    27    28    26    33
 C    -3.00300  -0.76720   1.52840    28    29    27    21
 C    -3.25550   0.57850   1.55170    29    31    12    28
 C    -0.94040   1.04080   2.29700    30    31    36    33
 C    -2.19220   1.40690   1.76140    31    29     2    30
 C     0.68730  -0.83640   2.49510    32    34    39    33
 C    -0.69810  -0.39460   2.48700    33    32    30    27
 C     1.75050   0.07220   2.48240    34    32    43    35
 C     1.49070   1.42880   2.21760    35     9    36    34
 C     0.19370   1.86420   1.99470    36    35    37    30
 C     0.06290   2.67260   0.82300    37     1    11    36
 C     0.01020  -2.65680   1.19910    38    26    40    39
 C     1.02560  -2.04370   1.83010    39    38    46    32
 C     0.41870  -3.01080  -0.03090    40    38    42    23
 C     2.08980  -2.09450  -1.34570    41    42    47    24
 C     1.72300  -2.71540  -0.17410    42    40    41    46
 C     2.99590  -0.21250   1.91220    43    44    45    34
 C     3.49840   0.88450   1.35280    44     9    43    48
 C     3.17940  -1.25800   1.04710    45    46    43    49
 C     2.19060  -2.20000   1.03660    46    45    42    39
 C     3.07350  -1.09880  -1.32550    47    52    49    41
 C     3.88830   0.66300   0.08880    48    44    49    50
 C     3.71750  -0.70260  -0.14770    49    48    47    45
 C     3.21240   1.62650  -0.68160    50    51    48    10
 C     2.57140   1.22590  -1.84050    51    52    50     8
 C     2.57700  -0.10410  -2.12980    52     3    51    47
