    52
C52-C1-33                                                                       
 C    -2.43370   1.08120  -1.81560     1     2    37     4
 C    -3.12970  -0.05810  -1.54300     2     1     5     3
 C    -4.04090  -0.12690  -0.47160     3    12    23     2
 C    -1.08520   1.04190  -2.20380     4     1     7    42
 C    -2.48610  -1.29530  -1.64580     5    13     2     6
 C    -1.09310  -1.35970  -1.96910     6     5    17     7
 C    -0.35800  -0.15510  -2.33700     7     4    10     6
 C     3.06240   1.02910  -1.27380     8    51    43     9
 C     1.75530   1.14500  -1.82800     9    41     8    10
 C     1.06630  -0.08380  -2.24750    10    11     7     9
 C     1.75370  -1.25560  -1.88960    11    52    16    10
 C    -3.97140  -1.38840  -0.03990    12     3    13    18
 C    -3.12070  -2.16760  -0.76110    13    14    12     5
 C    -2.23180  -2.78560   0.04570    14    15    13    20
 C    -0.90920  -2.93850  -0.15340    15    14    17    46
 C     1.05060  -2.26970  -1.26330    16    17    11    50
 C    -0.31090  -2.36340  -1.29110    17    16    15     6
 C    -3.36400  -1.28900   1.17690    18    20    12    19
 C    -3.10440   0.00110   1.53890    19    18    23    21
 C    -2.35280  -2.15160   1.24660    20    18    30    14
 C    -1.84610   0.33970   2.14500    21    22    19    31
 C    -1.40590   1.63040   1.87100    22    24    35    21
 C    -3.71360   0.80320   0.52710    23    25     3    19
 C    -2.05930   2.42500   0.96560    24    27    25    22
 C    -3.10730   1.97910   0.20990    25    23    24    37
 C     0.11860   2.87240   0.74740    26    27    40    35
 C    -1.12000   3.07940   0.25720    27    38    24    26
 C     3.24030   0.50930   1.51130    28    29    44    36
 C     2.21470   1.38950   1.60050    29    28    34    39
 C    -1.12600  -1.91460   1.76610    30    20    46    31
 C    -0.78810  -0.65330   2.29790    31    30    33    21
 C     1.63820  -1.25630   1.82610    32    36    47    33
 C     0.61630  -0.31710   2.29320    33    34    31    32
 C     0.96270   1.06640   2.09880    34    35    29    33
 C    -0.05530   1.94310   1.80150    35    34    22    26
 C     2.96520  -0.83450   1.53740    36    28    48    32
 C    -2.59510   2.21010  -1.05630    37    38     1    25
 C    -1.41850   2.86820  -1.03040    38    27    37    42
 C     2.39960   2.27300   0.50850    39    43    40    29
 C     1.24250   2.73500  -0.07340    40    39    26    41
 C     0.90440   2.19940  -1.38900    41    42     9    40
 C    -0.44840   2.20730  -1.73280    42    38    41     4
 C     3.46950   1.72410  -0.13540    43    44    39     8
 C     4.19890   0.83760   0.59620    44    45    43    28
 C     4.48420  -0.31530  -0.00830    45    44    51    48
 C    -0.19090  -2.60710   1.01530    46    47    30    15
 C     1.14820  -2.35330   1.03810    47    46    50    32
 C     3.84300  -1.39170   0.58750    48    49    45    36
 C     3.09990  -2.05990  -0.32870    49    52    50    48
 C     1.86980  -2.58990  -0.14720    50    49    47    16
 C     3.75040  -0.16740  -1.17260    51    52     8    45
 C     3.01030  -1.23890  -1.39840    52    51    11    49
