    52
C52-Cs-229                                                                      
 C     2.67680   2.03760  -1.12570     1    30     6     5
 C     1.39810   2.51690   1.18350     2    29     4    37
 C    -0.61430   2.91230  -0.00290     3     4    35    14
 C     0.74950   2.91830  -0.00630     4     3     5     2
 C     1.39870   2.52120  -1.19060     5     1     4    16
 C     2.67400   0.87170  -1.81350     6     1     7     9
 C     3.44460  -0.06590  -1.18940     7     8     6    24
 C     2.94460  -1.33010  -1.18510     8     7    20    11
 C     1.43880   0.63810  -2.37950     9     6    16    10
 C     0.88120  -0.64340  -2.46070    10     9    11    18
 C     1.72010  -1.63950  -1.84410    11    13     8    10
 C    -0.21500  -2.83650  -1.16770    12    13    28    19
 C     1.12680  -2.68900  -1.15850    13    12    21    11
 C    -1.39260   2.52250  -1.12060    14    50     3    15
 C    -0.75220   1.66620  -2.05390    15    16    14    17
 C     0.63030   1.73810  -2.08210    16    15     9     5
 C    -1.41670   0.39420  -2.31930    17    52    18    15
 C    -0.55570  -0.77700  -2.43070    18    19    10    17
 C    -1.08130  -1.96260  -1.82940    19    12    48    18
 C     2.87830  -2.03930  -0.00330    20    21     8    22
 C     1.82780  -2.84600   0.01240    21    20    26    13
 C     2.93790  -1.32860   1.18560    22    23    20    27
 C     3.43170  -0.05440   1.17440    23    33    22    24
 C     3.84360   0.57140  -0.01130    24    30     7    23
 C    -0.20900  -2.85130   1.17840    25    26    28    40
 C     1.13460  -2.69930   1.18820    26    25    21    27
 C     1.73510  -1.65140   1.87080    27    26    22    31
 C    -0.86320  -3.16900   0.00450    28    49    12    25
 C     2.67590   2.02350   1.13260    29    33    30     2
 C     3.40200   1.87560   0.00430    30    29     1    24
 C     0.90110  -0.64680   2.47700    31    32    27    41
 C     1.44840   0.64260   2.39700    32    33    37    31
 C     2.68060   0.87490   1.83150    33    29    23    32
 C    -2.61150   2.24090   0.65700    34    38    35    50
 C    -1.37570   2.49560   1.11090    35    34     3    36
 C    -0.74130   1.65750   2.05960    36    37    35    39
 C     0.63730   1.73860   2.09260    37    36    32     2
 C    -3.36750   1.22380   1.07470    38    34    43    42
 C    -1.39790   0.38320   2.32060    39    42    41    36
 C    -1.06960  -1.97010   1.83340    40    25    44    41
 C    -0.53850  -0.78690   2.43830    41    40    31    39
 C    -2.71840   0.23330   1.77310    42    38    46    39
 C    -4.02390   0.70100  -0.00120    43    45    38    51
 C    -2.29860  -1.99640   1.16590    44    46    49    40
 C    -3.85780  -0.61580  -0.01210    45    43    47    46
 C    -3.15270  -0.94870   1.15790    46    44    42    45
 C    -3.15730  -0.94080  -1.17880    47    48    45    52
 C    -2.31390  -1.99760  -1.17160    48    47    49    19
 C    -2.09130  -2.68720  -0.00710    49    28    48    44
 C    -2.64580   2.27050  -0.69440    50    51    14    34
 C    -3.40960   1.25000  -1.09470    51    50    43    52
 C    -2.74840   0.25730  -1.78610    52    51    47    17
