    52
C52-Cs-6                                                                        
 C    -2.40640  -0.33050  -2.06260     1     2     4    34
 C    -3.28860   0.66890  -1.76030     2    16     1     8
 C    -0.19110  -1.19080  -2.13890     3    10     4    33
 C    -1.05940  -0.12410  -2.31820     4     1     3     6
 C     0.97550   1.24220  -1.98320     5     9     6    11
 C    -0.44330   1.13720  -2.03830     6     5     4     7
 C    -1.29680   1.93220  -1.18450     7     8    20     6
 C    -2.66680   1.71910  -1.11730     8     2    18     7
 C     1.53270   2.15850  -1.08420     9    12    19     5
 C     1.18770  -1.08750  -2.10760    10     3    42    11
 C     1.87800   0.13320  -2.19180    11    10    13     5
 C     2.81050   2.09640  -0.65890    12    14     9    46
 C     3.22210   0.15810  -1.72000    13    14    15    11
 C     3.77620   1.25500  -1.06380    14    12    51    13
 C     3.80730  -0.92820  -1.05840    15    41    52    13
 C    -4.39140   0.28400  -1.07640    16     2    17    32
 C    -4.55240   1.09540  -0.00060    17    16    22    18
 C    -3.44160   1.90960   0.01770    18    17    25     8
 C     0.71840   2.43770   0.00730    19    20     9    26
 C    -0.63280   2.33270   0.01520    20    19     7    24
 C    -3.28870   0.69290   1.76310    21    22    23    25
 C    -4.37240   0.27110   1.06770    22    21    17    31
 C    -2.40240  -0.30670   2.05170    23    21    29    36
 C    -1.29650   1.96620   1.22630    24    25    20    28
 C    -2.66860   1.76260   1.15420    25    21    18    24
 C     1.54330   2.19370   1.10730    26    46    19    27
 C     0.98860   1.26980   2.00750    27    26    28    49
 C    -0.43510   1.15610   2.06160    28    27    29    24
 C    -1.05360  -0.11310   2.32020    29    30    23    28
 C    -0.18130  -1.17130   2.13060    30    50    29    37
 C    -4.02540  -0.98240   0.66320    31    22    32    36
 C    -4.02980  -0.99300  -0.70510    32    31    16    34
 C    -0.59620  -2.24470  -1.29950    33    40    35     3
 C    -2.87850  -1.44020  -1.32810    34    32    35     1
 C    -1.87160  -2.20010  -0.72590    35    34    33    38
 C    -2.86840  -1.41080   1.29860    36    31    38    23
 C    -0.58610  -2.20900   1.27190    37    39    38    30
 C    -1.86160  -2.18060   0.71360    38    37    36    35
 C     0.58490  -2.59080   0.66290    39    37    40    43
 C     0.59220  -2.62530  -0.71710    40    42    33    39
 C     2.92720  -1.91800  -0.70780    41    15    42    45
 C     1.71750  -2.11330  -1.32150    42    41    40    10
 C     1.69780  -2.05380   1.27840    43    45    39    50
 C     3.78980  -0.89310   1.04440    44    45    52    48
 C     2.92030  -1.88260   0.68410    45    44    43    41
 C     2.83970   2.13400   0.69160    46    47    12    26
 C     3.80680   1.28170   1.09150    47    46    48    51
 C     3.24700   0.19160   1.74160    48    47    44    49
 C     1.89500   0.15470   2.20560    49    50    48    27
 C     1.19340  -1.05600   2.10910    50    30    43    49
 C     4.57200   0.87150  -0.00210    51    52    14    47
 C     4.56100  -0.45700  -0.01120    52    51    15    44
