    52
C52-C1-60                                                                       
 C    -3.75170   1.23480   0.95470     1     5     2    32
 C    -3.25210   0.31850   1.79270     2    43     1    15
 C    -0.07060  -2.31250   1.56130     3    44    16     4
 C    -1.18320  -1.58160   1.95680     4     3    42    14
 C    -2.81240   2.17090   0.79660     5     1     6     8
 C    -2.51760   2.25220  -0.53990     6     7     5    22
 C    -1.23400   2.58930  -0.86950     7     6    23    11
 C    -1.72030   1.94220   1.62130     8    10     5    15
 C     0.69150   1.61440   1.85210     9    13    10    18
 C    -0.42770   2.32820   1.33300    10     8     9    11
 C    -0.21640   2.88260   0.03260    11    28     7    10
 C     3.05270   1.09120   1.43680    12    13    48    19
 C     1.96330   1.90230   1.33330    13    12     9    27
 C    -0.89760  -0.21760   2.38070    14    15    18     4
 C    -1.97410   0.68500   2.20230    15     2     8    14
 C     1.25880  -1.93500   1.67220    16     3    17    50
 C     1.59000  -0.65000   2.13330    17    16    19    18
 C     0.47180   0.25000   2.34430    18    14    17     9
 C     2.87630  -0.22770   1.74370    19    12    17    52
 C    -2.45610   0.44940  -2.02480    20    21    22    33
 C    -1.15920   0.80440  -2.39700    21    23    39    20
 C    -3.24140   1.23100  -1.17080    22    32    20     6
 C    -0.56480   1.93360  -1.88650    23    24    21     7
 C     0.79020   2.03280  -1.70270    24    23    28    25
 C     1.70160   1.00480  -2.03630    25    26    24    38
 C     2.94090   1.05130  -1.38830    26    46    25    29
 C     2.17250   2.59330   0.12570    27    28    29    13
 C     1.02500   2.79890  -0.54850    28    27    11    24
 C     3.29240   1.99130  -0.40140    29    48    27    26
 C    -3.89890  -0.71570  -0.04310    30    31    32    43
 C    -3.12910  -1.53470  -0.82320    31    30    35    33
 C    -4.06450   0.63170  -0.23250    32     1    30    22
 C    -2.41810  -0.94590  -1.88630    33    34    20    31
 C    -1.13850  -1.37990  -2.22590    34    37    33    39
 C    -2.35120  -2.37540  -0.02680    35    36    31    42
 C    -1.15800  -2.88670  -0.42580    36    44    35    37
 C    -0.52490  -2.42040  -1.58020    37    34    40    36
 C     1.08460  -0.25730  -2.37300    38    39    25    41
 C    -0.32720  -0.29620  -2.56510    39    21    34    38
 C     0.85260  -2.45470  -1.40280    40    45    37    41
 C     1.71920  -1.43220  -1.81580    41    40    47    38
 C    -2.41710  -1.80800   1.26940    42    43    35     4
 C    -3.40000  -0.88900   1.23710    43     2    42    30
 C    -0.12120  -3.06300   0.40790    44    45    36     3
 C     1.08400  -3.00950  -0.15310    45    44    50    40
 C     3.59200  -0.09520  -0.99700    46    47    49    26
 C     2.90880  -1.27600  -1.07460    47    46    41    51
 C     4.02330   1.28970   0.49740    48    49    29    12
 C     4.34120   0.04600   0.14040    49    48    52    46
 C     2.05350  -2.53910   0.65740    50    45    51    16
 C     3.14730  -1.88610   0.19310    51    50    52    47
 C     3.79250  -0.92730   0.91850    52    49    51    19
