    52
C52-C1-52                                                                       
 C    -1.34930  -1.12760   2.17980     1     2     4    32
 C    -2.33650  -1.73960   1.47470     2     1     3     9
 C    -3.50350  -1.12580   1.11080     3     7     2    31
 C    -0.02790  -1.49190   2.10890     4     1    40     5
 C     0.43120  -2.40400   1.14820     5     6     4     8
 C     1.78420  -2.36980   0.86790     6    26     5    41
 C    -3.91030  -1.59420  -0.09570     7    11     3    10
 C    -0.54180  -2.68720   0.12790     8     9     5    12
 C    -1.89540  -2.49550   0.37260     9    10     8     2
 C    -2.83180  -2.24910  -0.59480    10     7     9    13
 C    -4.13280  -0.51540  -0.84670    11     7    14    16
 C    -0.07030  -2.35150  -1.20670    12    27    28     8
 C    -2.30830  -1.54740  -1.67190    13    14    10    28
 C    -3.15670  -0.46350  -1.78520    14    23    11    13
 C    -3.14950   1.47790  -0.81500    15    17    16    23
 C    -3.95490   0.61320  -0.10680    16    11    15    31
 C    -2.32200   2.33260  -0.16650    17    18    15    29
 C    -1.18290   2.74410  -0.74360    18    37    17    24
 C     1.87980  -1.18140  -2.00570    19    46    27    20
 C     1.09100  -0.05900  -2.34550    20    19    21    49
 C    -0.34620  -0.22320  -2.40500    21    20    22    28
 C    -1.21760   0.92620  -2.25580    22    24    23    21
 C    -2.56540   0.74940  -1.88740    23    14    22    15
 C    -0.57510   2.06750  -1.78000    24    18    50    22
 C     3.38410  -2.00440  -0.54390    25    26    46    52
 C     2.21730  -2.62870  -0.40420    26    25     6    27
 C     1.28900  -2.26750  -1.35070    27    12    26    19
 C    -0.94010  -1.48790  -1.95420    28    13    12    21
 C    -1.95790   2.13800   1.18120    29    30    17    33
 C    -2.46030   0.98060   1.79600    30    29    31    32
 C    -3.51150   0.27130   1.17810    31     3    16    30
 C    -1.39850   0.24950   2.38590    32     1    36    30
 C    -0.62630   2.59050   1.32120    33    37    35    29
 C     1.70800   1.95170   1.60040    34    38    35    45
 C     0.36240   1.89740   2.03140    35    36    33    34
 C    -0.06900   0.66580   2.51740    36    35    32    40
 C    -0.22800   3.08760   0.10000    37    18    43    33
 C     2.64520   0.90750   1.73680    38    42    34    39
 C     2.15760  -0.37080   2.10580    39    40    41    38
 C     0.80640  -0.42840   2.45760    40     4    39    36
 C     2.73620  -1.46920   1.42420    41    52    39     6
 C     3.62200   1.01730   0.75350    42    51    44    38
 C     1.00480   2.93760  -0.40440    43    37    45    50
 C     3.08850   1.90110  -0.12640    44    45    42    48
 C     2.05130   2.58130   0.37580    45    44    43    34
 C     3.16870  -1.09210  -1.51800    46    47    25    19
 C     3.68660   0.07450  -1.12650    47    46    48    51
 C     2.96620   1.21510  -1.33460    48    47    44    49
 C     1.70340   1.21770  -1.99110    49    50    48    20
 C     0.79230   2.19840  -1.60410    50    24    49    43
 C     4.16460  -0.07660   0.16860    51    42    52    47
 C     3.82750  -1.33860   0.54930    52    25    51    41
