    52
C52-C3-303                                                                      
 C     0.19030   0.51190   3.09180     1    11    35     2
 C     1.25670  -0.31400   2.90170     2     1    13     4
 C    -0.36190  -1.97990   2.10980     3     6     9     4
 C     1.03910  -1.58530   2.36940     4     2     5     3
 C     2.05800  -1.97410   1.43590     5     8    14     4
 C    -0.56750  -2.81250   0.96460     6     7    52     3
 C     0.47570  -3.13940   0.18020     7     8     6    48
 C     1.71860  -2.76620   0.39340     8     7    18     5
 C    -1.45910  -1.05480   2.37680     9    10    11     3
 C    -2.61650  -1.07780   1.56410    10    12    51     9
 C    -1.10010   0.23880   2.82870    11     1     9    43
 C    -3.30460   0.09040   1.22710    12    45    42    10
 C     2.25090   0.51730   2.40950    13    15    32     2
 C     3.00990  -1.06920   0.88030    14    15    16     5
 C     3.05120   0.22040   1.36450    15    13    14    20
 C     3.04320  -1.30290  -0.50920    16    18    17    14
 C     3.00380  -0.24040  -1.38750    17    16    19    27
 C     2.24180  -2.35490  -0.77820    18     8    16    25
 C     3.04470   1.07340  -0.86380    19    22    20    17
 C     3.00500   1.31680   0.48880    20    19    15    31
 C     0.48170   1.40730  -2.79930    21    23    36    24
 C     2.23330   1.82420  -1.63880    22    19    23    33
 C     1.72610   1.02540  -2.60850    23    21    27    22
 C    -0.56550   0.56090  -2.91250    24    21    47    29
 C     1.25410  -2.37810  -1.75730    25    48    18    26
 C     1.04900  -1.27270  -2.58510    26    25    27    29
 C     2.06860  -0.26830  -2.46520    27    23    17    26
 C    -1.46130  -1.54190  -2.10940    28    49    30    29
 C    -0.36010  -0.85050  -2.77670    29    24    28    26
 C    -2.62600  -0.82350  -1.72410    30    50    46    28
 C     2.06000   2.24620   1.01880    31    32    20    34
 C     1.72130   1.75500   2.23080    32    35    31    13
 C     1.25470   2.68630  -1.16180    33    36    22    34
 C     1.04060   2.85950   0.20520    34    33    31    37
 C     0.47580   1.76380   2.65500    35    32    38     1
 C     0.18700   2.42740  -1.97010    36    39    21    33
 C    -0.36060   2.82980   0.68260    37    38    40    34
 C    -0.57980   2.26270   1.98030    38    35    43    37
 C    -1.09710   2.33590  -1.60330    39    36    40    47
 C    -1.45920   2.59520  -0.25600    40    41    39    37
 C    -2.62950   1.90460   0.14650    41    44    42    40
 C    -2.69520   1.30260   1.41950    42    43    12    41
 C    -1.65630   1.41690   2.25680    43    42    38    11
 C    -3.31910   1.04220  -0.70810    44    45    46    41
 C    -3.75330  -0.00900  -0.01490    45    12    50    44
 C    -2.69980   0.58010  -1.83550    46    47    44    30
 C    -1.64590   1.24020  -2.33120    47    46    24    39
 C     0.18010  -2.94550  -1.12170    48    49     7    25
 C    -1.10940  -2.58390  -1.21780    49    48    28    52
 C    -3.32780  -1.14290  -0.55380    50    45    51    30
 C    -2.70910  -1.88880   0.41470    51    52    50    10
 C    -1.65830  -2.65600   0.09610    52    51     6    49
