    52
C52-C1-233                                                                      
 C    -2.50630  -0.27090  -2.02060     1     2    12     9
 C    -2.31470   1.05000  -1.84170     2     1     3    19
 C    -1.10660   1.64920  -2.20570     3    29     2     7
 C     1.30620   2.56880  -1.23730     4    28    38     6
 C     2.41840   0.59100  -1.89630     5     6    11    14
 C     1.33360   1.43330  -2.10730     6     5     4     7
 C     0.06360   0.88470  -2.53670     7     3     6     8
 C    -0.09160  -0.55630  -2.57860     8     9     7    15
 C    -1.39850  -1.06540  -2.39020     9    16     1     8
 C     3.88740  -0.31540  -0.48510    10    11    46    52
 C     3.39980   0.83890  -0.92710    11    10    37     5
 C    -3.28210  -0.98960  -1.14380    12    13     1    17
 C    -2.75620  -2.20500  -1.07880    13    24    12    16
 C     2.27970  -0.81010  -1.95920    14    46     5    15
 C     1.01270  -1.40380  -2.16260    15    14     8    49
 C    -1.62900  -2.27700  -1.78910    16    13    50     9
 C    -3.47440  -0.49270   0.13770    17    12    18    21
 C    -3.23150   0.87990   0.40340    18    19    17    20
 C    -2.80230   1.69750  -0.67300    19    27    18     2
 C    -2.53170   1.16720   1.61300    20    23    25    18
 C    -2.95980  -1.54340   0.97550    21    22    24    17
 C    -2.16690  -1.17630   2.02230    22    23    21    45
 C    -2.03990   0.12400   2.33150    23    30    22    20
 C    -2.49370  -2.55760   0.16230    24    13    21    42
 C    -1.55750   2.18980   1.73370    25    26    20    31
 C    -1.34210   3.04470   0.69930    26    25    32    27
 C    -1.95950   2.75390  -0.49550    27    29    19    26
 C     0.13940   3.16170  -0.93790    28    29     4    32
 C    -1.01110   2.77930  -1.45820    29    28    27     3
 C    -0.80540   0.38900   2.75320    30    23    31    39
 C    -0.42280   1.63390   2.39970    31    30    34    25
 C    -0.02640   3.29990   0.39690    32    28    35    26
 C     1.87250   0.73070   2.12990    33    36    34    41
 C     0.93330   1.84270   2.04610    34    35    31    33
 C     1.08950   2.76770   0.98570    35    32    38    34
 C     3.01270   0.73310   1.26010    36    52    37    33
 C     2.99420   1.60030   0.14050    37    38    11    36
 C     2.02060   2.50310  -0.01600    38    37    35     4
 C    -0.02460  -0.71190   2.71650    39    30    41    45
 C     1.88850  -1.71700   1.77150    40    51    41    43
 C     1.33600  -0.60760   2.45330    41    39    40    33
 C    -1.17760  -2.99510   0.22020    42    24    44    50
 C     1.01530  -2.59660   1.08190    43    44    40    48
 C    -0.35220  -2.65080   1.29730    44    43    42    45
 C    -0.87810  -1.72770   2.21160    45    44    22    39
 C     3.23880  -1.32410  -1.10810    46    47    10    14
 C     2.78110  -2.15360  -0.16150    47    46    48    51
 C     1.56880  -2.73280  -0.21730    48    47    49    43
 C     0.69570  -2.56750  -1.31130    49    50    48    15
 C    -0.62780  -2.87230  -1.09220    50    16    49    42
 C     3.02100  -1.57410   1.04520    51    52    40    47
 C     3.65980  -0.41630   0.84670    52    51    10    36
