    52
C52-C2-397                                                                      
 C     2.29170   2.26800  -0.85020     1     4    29     2
 C     1.93460   1.52630  -1.96600     2     3     1    10
 C     2.48680   0.28520  -2.04500     3     2    28     6
 C     1.23200   2.96380  -0.47180     4     1    38     9
 C    -0.58120  -1.63090  -2.25760     5    24     7    15
 C     1.61850  -0.77470  -2.30830     6     3     7    17
 C     0.25410  -0.57470  -2.63160     7     5     6    13
 C    -1.07350   2.83620  -0.85890     8     9    14    11
 C     0.18820   2.77560  -1.34610     9     8     4    10
 C     0.58440   1.77480  -2.23320    10     9     2    13
 C    -2.06480   1.96840  -1.31010    11     8    47    12
 C    -1.74580   0.91020  -2.22750    12    25    11    13
 C    -0.34230   0.76280  -2.61220    13    10    12     7
 C    -1.25250   2.99650   0.49810    14    52     8    37
 C    -0.17330  -2.62300  -1.32760    15    16    23     5
 C     1.13090  -2.68560  -0.88240    16    15    17    20
 C     2.08880  -1.85710  -1.51560    17    18    16     6
 C     3.23190  -1.43420  -0.85670    18    19    28    17
 C     3.37940  -1.63510   0.46950    19    21    18    32
 C     1.31400  -2.84970   0.51880    20    21    46    16
 C     2.39210  -2.25780   1.11020    21    19    30    20
 C    -2.37000  -2.23120  -1.10360    22    42    24    23
 C    -1.29920  -2.83440  -0.50320    23    22    15    45
 C    -1.90340  -1.43360  -2.07750    24    22     5    25
 C    -2.54530  -0.22860  -2.05080    25    24    26    12
 C    -3.50420  -0.37020  -1.04530    26    49    42    25
 C     3.63130   0.56750   0.05450    27    29    32    28
 C     3.42540  -0.12330  -1.12970    28    18     3    27
 C     2.96400   1.74720   0.23110    29    27     1    35
 C     1.89910  -1.44600   2.06580    30    39    21    31
 C     2.53030  -0.22980   2.02340    31    30    32    34
 C     3.50100  -0.38030   1.03610    32    27    19    31
 C     0.32840   0.75280   2.57840    33    36    41    34
 C     1.73540   0.91800   2.19810    34    31    35    33
 C     2.06980   1.99580   1.31230    35    38    29    34
 C    -0.58810   1.78630   2.20200    36    37    51    33
 C    -0.18540   2.83030   1.35600    37    38    14    36
 C     1.07890   2.87540   0.89120    38    37     4    35
 C     0.57990  -1.64120   2.25180    39    30    41    46
 C    -1.62830  -0.78230   2.30760    40    50    41    44
 C    -0.26390  -0.58640   2.61630    41    39    40    33
 C    -3.36420  -1.61250  -0.46080    42    22    43    26
 C    -3.21780  -1.43860   0.86520    43    42    48    44
 C    -2.09030  -1.88310   1.52900    44    43    45    40
 C    -1.12910  -2.70890   0.90190    45    46    44    23
 C     0.17680  -2.64980   1.33450    46    45    20    39
 C    -2.96030   1.76240  -0.21430    47    49    52    11
 C    -3.40380  -0.12370   1.12670    48    43    50    49
 C    -3.61650   0.57150  -0.06460    49    26    47    48
 C    -2.47840   0.29560   2.04830    50    51    48    40
 C    -1.95190   1.54580   1.95540    51    50    52    36
 C    -2.31600   2.31340   0.87190    52    14    51    47
