    52
C52-C1-216                                                                      
 C    -1.91680  -2.81760  -0.85290     1     2     3    37
 C    -3.07500  -2.37790  -0.35310     2     1     7    27
 C    -0.98620  -3.05010   0.12840     3     1     4    12
 C     0.37070  -3.00720  -0.08080     4     3     6    35
 C     2.44410  -2.28830   0.87620     5     6    36    48
 C     1.16310  -2.65920   1.01470     6     5     4    13
 C    -2.85950  -2.10920   0.94140     7     8     2    12
 C    -3.24020  -0.85290   1.17500     8     7    11    26
 C    -1.83020   2.28240   1.35960     9    10    18    17
 C    -2.69130   1.26790   1.20810    10     9    11    25
 C    -2.49220   0.05690   1.84880    11     8    10    15
 C    -1.57750  -2.44940   1.28500    12     7    14     3
 C     0.59300  -1.81540   1.99680    13    14    20     6
 C    -0.76330  -1.60110   2.08010    14    13    12    15
 C    -1.20300  -0.25520   2.38250    15    11    14    16
 C    -0.21130   0.80520   2.46900    16    17    21    15
 C    -0.61480   2.08500   2.03070    17    22     9    16
 C    -1.60480   3.15160   0.32400    18    19     9    23
 C    -0.36340   3.60770   0.46250    19    33    18    22
 C     1.56400  -0.83570   2.25040    20    48    13    21
 C     1.20860   0.51960   2.35560    21    20    16    51
 C     0.26200   2.96660   1.46070    22    19    52    17
 C    -1.74540   2.61010  -0.94360    23    18    24    28
 C    -2.53530   1.47400  -1.17830    24    23    25    31
 C    -3.26570   0.97200  -0.05690    25    26    10    24
 C    -3.68070  -0.31440  -0.01430    26    25    27     8
 C    -3.44990  -1.23950  -0.98040    27     2    26    32
 C    -0.46000   2.76720  -1.50310    28    29    33    23
 C     0.05740   1.72480  -2.20920    29    28    30    47
 C    -0.69270   0.58590  -2.47090    30    29    38    31
 C    -2.02960   0.42660  -2.04940    31    32    30    24
 C    -2.45720  -0.90640  -1.87480    32    27    31    37
 C     0.37560   3.41890  -0.61020    33    19    44    28
 C     2.20510  -1.98940  -1.34170    34    36    43    35
 C     0.86450  -2.46600  -1.34350    35    34    39     4
 C     3.10130  -2.13050  -0.28950    36     5    40    34
 C    -1.49620  -1.95500  -1.84950    37     1    39    32
 C     0.22220  -0.47760  -2.53940    38    41    30    39
 C    -0.14250  -1.76500  -2.10560    39    37    38    35
 C     3.87190  -1.02380  -0.13280    40    42    49    36
 C     1.50040   0.01890  -2.37190    41    43    38    47
 C     3.47880  -0.15480  -1.07430    42    40    43    45
 C     2.51590  -0.72860  -1.86960    43    41    42    34
 C     1.59750   2.87230  -0.26940    44    33    46    52
 C     3.17130   1.08330  -0.50940    45    46    42    50
 C     2.23710   1.94460  -1.07840    46    44    45    47
 C     1.40050   1.37300  -2.07780    47    41    29    46
 C     2.72720  -1.22400   1.65820    48    49     5    20
 C     3.61660  -0.41590   1.05000    49    48    40    50
 C     3.19290   0.87670   0.90710    50    49    51    45
 C     2.11990   1.44390   1.64390    51    52    50    21
 C     1.52100   2.57810   1.12550    52    22    51    44
