    52
C52-C1-371                                                                      
 C     3.25520   1.35730   0.06160     1     2     4    33
 C     2.64980   1.76890  -1.08930     2     1     3    14
 C     1.63880   2.68670  -0.96290     3     5     2    26
 C     3.45990   0.00630   0.21560     4    35    15     1
 C     0.68200   2.45300  -1.85600     5     3     6     8
 C    -0.54080   2.79970  -1.40010     6     5     7    25
 C    -1.62340   2.09090  -1.79470     7    17     6    11
 C     0.96130   1.28010  -2.52200     8     5    10    14
 C     0.12240  -0.93000  -2.71870     9    10    20    13
 C    -0.12440   0.43640  -2.81930    10     9     8    11
 C    -1.42650   0.86280  -2.47310    11    10     7    22
 C     1.14270  -2.56920  -1.63990    12    45    13    52
 C     1.40240  -1.40480  -2.30900    13    12    16     9
 C     2.21260   0.82260  -2.04630    14     8    16     2
 C     3.10200  -0.97270  -0.67560    15     4    50    16
 C     2.44300  -0.56350  -1.88110    16    13    14    15
 C    -2.64390   1.92460  -0.94660    17     7    18    23
 C    -3.20210   0.70100  -1.12970    18    19    17    22
 C    -3.62340   0.21320   0.03670    19    18    49    28
 C    -0.87680  -1.81770  -2.23680    20    45    21     9
 C    -2.12160  -1.37950  -1.73340    21    22    20    48
 C    -2.42100  -0.02530  -1.99360    22    18    21    11
 C    -2.55920   2.19630   0.40930    23    28    17    24
 C    -1.31350   2.65160   0.92820    24    23    25    31
 C    -0.34580   3.10700  -0.02140    25    26     6    24
 C     1.02930   3.06950   0.21720    26    27     3    25
 C     1.52720   2.50170   1.35620    27    26    33    32
 C    -3.23490   1.15100   0.97550    28    29    23    19
 C    -2.66950   0.46190   1.95300    29    28    44    30
 C    -1.45470   0.77130   2.49010    30    29    31    36
 C    -0.74880   1.92730   2.06850    31    32    30    24
 C     0.64540   1.84170   2.22380    32    27    31    38
 C     2.66560   1.74020   1.26550    33    34    27     1
 C     2.54020   0.67060   2.06360    34    35    33    38
 C     3.05270  -0.39480   1.45420    35    34    43     4
 C    -0.78900  -0.46250   2.71770    36    37    39    30
 C     0.60790  -0.58470   2.72070    37    36    38    42
 C     1.30030   0.64100   2.62650    38    34    37    32
 C    -1.62470  -1.44730   2.16170    39    44    40    36
 C    -1.08150  -2.49450   1.49660    40    39    41    47
 C     0.30230  -2.70450   1.52130    41    51    40    42
 C     1.20060  -1.77580   2.10610    42    41    43    37
 C     2.44170  -1.59690   1.40320    43    35    50    42
 C    -2.73850  -0.85230   1.67930    44    29    39    49
 C    -0.18550  -2.80500  -1.62620    45    46    12    20
 C    -0.51890  -3.27690  -0.42700    46    45    47    51
 C    -1.61180  -2.79450   0.20330    47    46    40    48
 C    -2.56410  -1.93500  -0.43180    48    49    47    21
 C    -3.27280  -1.06070   0.41560    49    19    44    48
 C     2.62630  -2.07810   0.08070    50    52    43    15
 C     0.61230  -3.29050   0.31610    51    46    52    41
 C     1.69160  -2.91450  -0.42990    52    50    51    12
