    52
C52-C1-35                                                                       
 C    -2.27280   1.70690   1.71120     1    40    37    12
 C    -1.66910  -0.77640   2.28630     2     3    13    38
 C    -1.28870  -1.94950   1.74840     3     4    17     2
 C    -2.15700  -2.34310   0.82310     4     3     5    19
 C    -1.37750  -2.83020  -0.19360     5     6     4     7
 C    -1.71500  -2.28670  -1.39720     6     5    20    30
 C    -0.04850  -2.87620   0.19700     7     5     8    17
 C     1.05680  -2.60260  -0.61000     8     9     7    29
 C     2.27780  -2.34250  -0.02050     9    31     8    11
 C     3.31320  -0.94550   1.30210    10    11    48    18
 C     2.25450  -1.78460   1.28620    11    10    16     9
 C    -1.01070   1.45240   2.19530    12     1    50    13
 C    -0.62510   0.15690   2.54530    13    12     2    15
 C     1.78680   0.77840   2.05060    14    18    51    15
 C     0.76790  -0.20690   2.40390    15    13    16    14
 C     1.05820  -1.54780   1.92030    16    11    17    15
 C    -0.01600  -2.29030   1.48940    17     3    16     7
 C     3.08210   0.38570   1.60090    18    10    52    14
 C    -3.23200  -1.48800   0.77840    19     4    21    38
 C    -2.85370  -1.52940  -1.48920    20    23     6    21
 C    -3.73420  -1.13120  -0.47730    21    32    19    20
 C    -1.17110  -0.41780  -2.47580    22    23    30    24
 C    -2.49860  -0.42750  -2.17740    23    33    20    22
 C    -0.38860   0.74480  -2.37060    24    22    27    34
 C     2.96240  -0.80430  -1.57920    25    31    46    26
 C     1.63250  -0.74510  -2.08760    26    25    29    27
 C     1.01830   0.57750  -2.28020    27    28    24    26
 C     1.77860   1.60020  -1.69080    28    47    42    27
 C     0.71170  -1.79980  -1.76820    29    30    26     8
 C    -0.64570  -1.64850  -2.06040    30    29    22     6
 C     3.33880  -1.71180  -0.59930    31    48     9    25
 C    -4.00300   0.21530  -0.68990    32    36    33    21
 C    -3.16630   0.61800  -1.71600    33    23    35    32
 C    -1.08800   1.86720  -1.73360    34    35    43    24
 C    -2.48570   1.76520  -1.43810    35    33    39    34
 C    -3.84100   1.18800   0.25360    36    32    39    37
 C    -3.29300   0.81800   1.48620    37     1    38    36
 C    -2.95620  -0.48850   1.74710    38    37    19     2
 C    -3.02680   2.18990  -0.23950    39    40    35    36
 C    -2.14000   2.57150   0.67750    40    39    41     1
 C    -0.82930   2.80850   0.47140    41    40    43    50
 C     1.10520   2.42710  -0.80060    42    43    28    45
 C    -0.25500   2.57140  -0.79220    43    42    41    34
 C     3.15060   1.93720   0.01840    44    52    45    47
 C     1.93230   2.43150   0.34570    45    44    51    42
 C     3.74780   0.30570  -1.28600    46    47    49    25
 C     3.03120   1.42060  -1.23550    47    46    28    44
 C     4.17840  -1.06520   0.25230    48    49    31    10
 C     4.51260   0.16450  -0.13650    49    48    52    46
 C    -0.09150   2.26580   1.54850    50    51    12    41
 C     1.25390   2.00300   1.49790    51    50    45    14
 C     3.92690   1.07130   0.71240    52    44    49    18
