    52
C52-C1-69                                                                       
 C     1.65840   2.79910   0.63370     1    35     3     2
 C     2.12020   1.83530   1.48130     2     1     6    14
 C     0.33070   2.94020   0.41900     3     1     4    43
 C    -0.63750   2.39460   1.23590     4    10     3     5
 C    -0.21830   1.33430   2.13770     5     6     4     9
 C     1.18740   1.04800   2.20580     6     7     2     5
 C     1.58390  -0.27610   2.35800     7    15     6    21
 C    -2.53640   0.52560   1.86770     8    11    49     9
 C    -1.21270   0.27830   2.28380     9     8    20     5
 C    -1.90790   2.39500   0.71050    10    11     4    13
 C    -2.94080   1.67620   1.21000    11    10    51     8
 C    -3.20690   1.59600  -0.80660    12    13    51    44
 C    -2.08730   2.36430  -0.69860    13    12    42    10
 C     3.28700   1.33180   0.83310    14    16    30     2
 C     2.76100  -0.74280   1.80930    15    18    16     7
 C     3.55670   0.00640   0.98050    16    14    15    24
 C     1.31180  -2.35790   1.62350    17    18    19    21
 C     2.59300  -1.99630   1.35030    18    15    17    25
 C     0.57740  -3.00940   0.67200    19    17    22    26
 C    -0.74480  -1.09000   2.22350    20    21     9    23
 C     0.64110  -1.31160   2.28780    21     7    20    17
 C    -0.80190  -2.87640   0.61700    22    48    19    23
 C    -1.55030  -2.01650   1.45010    23    50    22    20
 C     3.67980  -0.83320  -0.11980    24    25    16    28
 C     3.14430  -2.06060   0.10130    25    24    18    27
 C     1.09290  -3.01490  -0.64510    26    34    27    19
 C     2.27820  -2.37540  -0.91100    27    25    26    31
 C     3.12700  -0.32190  -1.28830    28    29    24    31
 C     2.91180   1.01790  -1.43060    29    28    30    37
 C     3.28880   1.92320  -0.42910    30    35    14    29
 C     2.19250  -1.23940  -1.75500    31    28    27    32
 C     0.94880  -0.81420  -2.32930    32    33    31    36
 C    -0.13210  -1.67650  -2.16540    33    34    39    32
 C    -0.01250  -2.79570  -1.36860    34    48    26    33
 C     2.37560   2.87340  -0.48960    35    30    38     1
 C     0.65090   0.59390  -2.38360    36    37    32    41
 C     1.69560   1.47610  -1.99150    37    38    29    36
 C     1.44200   2.70800  -1.42670    38    35    43    37
 C    -1.45790  -1.27050  -2.05780    39    33    40    45
 C    -1.81840   0.08410  -2.10570    40    39    44    41
 C    -0.73720   1.04280  -2.20710    41    40    42    36
 C    -0.94270   2.28900  -1.47460    42    43    13    41
 C     0.17410   2.92700  -0.99730    43    38    42     3
 C    -3.03950   0.38590  -1.45520    44    12    47    40
 C    -2.15450  -2.16290  -1.20430    45    48    46    39
 C    -3.12900  -1.68560  -0.40180    46    45    47    50
 C    -3.79680  -0.52840  -0.68850    47    52    46    44
 C    -1.16310  -2.91810  -0.71400    48    34    45    22
 C    -3.40220  -0.42090   1.34220    49    50    52     8
 C    -2.79410  -1.57770   0.97210    50    49    23    46
 C    -3.93450   1.40190   0.32870    51    52    11    12
 C    -4.25320   0.12790   0.41380    52    51    47    49
