    52
C52-C1-24                                                                       
 C    -1.15060   1.83010  -1.81910     1     2     3    37
 C    -2.47980   1.68520  -1.53040     2    32     1    10
 C    -0.25290   2.46590  -0.98110     3     1     4    14
 C     1.13480   2.24470  -1.10620     4     6     3     8
 C     3.19690   1.87580   0.12940     5     9     6    47
 C     1.94910   2.38800   0.03650     6     5    15     4
 C     2.95390   0.71990  -1.72630     7    38     9     8
 C     1.62890   1.16930  -1.96040     8     7    36     4
 C     3.88830   1.20110  -0.80630     9     5    52     7
 C    -3.09030   1.97330  -0.33450    10     2    12    11
 C    -4.04560   0.99170  -0.12220    11    18    10    31
 C    -2.14610   2.25650   0.62720    12    10    14    16
 C    -0.01590   2.22340   1.35950    13    15    14    24
 C    -0.82940   2.59290   0.31990    14    13    12     3
 C     1.30950   2.15390   1.24420    15    13    25     6
 C    -2.07310   1.45320   1.78250    16    17    24    12
 C    -2.97720   0.41650   1.89810    17    16    18    20
 C    -4.05170   0.23800   1.02630    18    26    11    17
 C    -0.28570  -1.97520   1.63490    19    51    28    21
 C    -2.32840  -0.82000   2.08890    20    27    17    21
 C    -0.93860  -0.94290   2.33700    21    19    20    23
 C     1.36820   0.08370   2.37410    22    25    50    23
 C    -0.06930   0.17170   2.53900    23    24    21    22
 C    -0.74060   1.36570   2.15450    24    13    16    23
 C     2.07740   1.22550   1.92010    25    47    15    22
 C    -4.06020  -1.05650   0.64680    26    27    18    30
 C    -3.02910  -1.67010   1.24600    27    26    29    20
 C    -0.96080  -2.51970   0.53380    28    29    40    19
 C    -2.26840  -2.30280   0.31330    29    28    27    35
 C    -3.89300  -1.18000  -0.69720    30    26    31    35
 C    -3.95040   0.08830  -1.18630    31    32    30    11
 C    -2.94430   0.50230  -1.97160    32    31     2    33
 C    -1.83800  -0.21690  -2.34780    33    32    37    34
 C    -1.67240  -1.52560  -1.84140    34    33    41    35
 C    -2.72580  -1.91380  -0.95080    35    29    30    34
 C     0.60210   0.24120  -2.38480    36    37    39     8
 C    -0.72590   0.62950  -2.41540    37    36    33     1
 C     3.20010  -0.62860  -1.69270    38    43    42     7
 C     0.82530  -1.16150  -2.11980    39    42    41    36
 C    -0.00290  -2.58850  -0.43810    40    28    44    41
 C    -0.31380  -1.91910  -1.65900    41    34    40    39
 C     2.11870  -1.46300  -1.67840    42    38    46    39
 C     4.17280  -0.94810  -0.78940    43    52    45    38
 C     1.24710  -2.55560   0.11270    44    46    40    51
 C     3.49550  -1.76200   0.04970    45    43    46    49
 C     2.37120  -2.25120  -0.55030    46    44    45    42
 C     3.28510   1.16820   1.30360    47    48    25     5
 C     4.05440   0.08970   1.07080    48    47    52    49
 C     3.30080  -1.07540   1.25550    49    48    45    50
 C     2.01870  -1.11910   1.89370    50    51    49    22
 C     1.06830  -2.02670   1.40610    51    19    50    44
 C     4.59160   0.17980  -0.19110    52    43    48     9
