    52
C52-C1-172                                                                      
 C    -2.76490   1.74950  -1.31570     1     2     6    33
 C    -2.77360   0.60720  -1.97770     2     1    31     5
 C    -0.47280  -1.89590  -2.05020     3     4    11    18
 C    -1.66590  -1.24160  -2.21630     4     3     5    17
 C    -1.61400   0.12980  -2.51250     5     2     4     8
 C    -1.58740   2.42650  -1.12940     6    12     1     7
 C    -0.35830   2.08820  -1.73780     7     6    13     8
 C    -0.37610   0.84220  -2.52100     8    10     5     7
 C     2.04010   0.68110  -2.19760     9    26    10    14
 C     0.83350   0.10130  -2.57870    10     9     8    11
 C     0.74590  -1.29830  -2.31480    11     3    24    10
 C    -1.62420   2.74520   0.20100    12    50    34     6
 C     0.86510   2.44560  -1.06420    13    14     7    52
 C     2.09320   1.88630  -1.47230    14    49     9    13
 C    -2.54090  -2.25210  -0.27870    15    27    17    16
 C    -1.29970  -2.86710  -0.07050    16    18    20    15
 C    -2.79210  -1.49360  -1.41220    17    31    15     4
 C    -0.27770  -2.78970  -1.00260    18    19    16     3
 C     1.06240  -2.74770  -0.65930    19    18    24    22
 C    -0.89500  -2.65600   1.24810    20    28    21    16
 C     0.42150  -2.45650   1.56960    21    20    22    36
 C     1.46820  -2.64100   0.67800    22    46    21    19
 C     2.90890  -1.29930  -1.23580    23    24    26    45
 C     1.73910  -1.93060  -1.55600    24    23    19    11
 C     3.89460   0.65250  -0.88760    25    26    49    44
 C     3.13480  -0.03880  -1.73230    26    25    23     9
 C    -2.86270  -1.65970   0.92510    27    28    29    15
 C    -1.85050  -1.85990   1.78140    28    27    20    38
 C    -3.41410  -0.40850   1.07800    29    27    30    32
 C    -3.86100   0.26200  -0.06990    30    33    31    29
 C    -3.48620  -0.31840  -1.28070    31     2    17    30
 C    -2.56130   0.19400   2.05290    32    35    38    29
 C    -3.46700   1.58810  -0.14140    33    34     1    30
 C    -2.69660   2.17360   0.79760    34    33    12    35
 C    -2.18370   1.51310   1.87390    35    34    32    43
 C     0.76900  -1.34130   2.35720    36    39    21    37
 C    -0.22810  -0.37760   2.72060    37    38    42    36
 C    -1.57700  -0.71250   2.47150    38    28    32    37
 C     2.07940  -1.02360   2.03180    39    40    36    46
 C     2.49140   0.29580   2.04360    40    47    39    41
 C     1.48200   1.26370   2.13840    41    40    42    51
 C     0.15650   0.98580   2.50790    42    41    43    37
 C    -0.83230   1.85700   2.01430    43    35    42    50
 C     4.04030  -0.08960   0.24260    44    25    47    45
 C     3.45510  -1.33250   0.06870    45    44    46    23
 C     2.56970  -1.86720   1.00720    46    22    45    39
 C     3.45970   0.72470   1.18730    47    48    40    44
 C     3.01810   1.88810   0.63630    48    49    51    47
 C     3.23550   1.81960  -0.68290    49    48    25    14
 C    -0.49140   2.70690   0.92900    50    12    52    43
 C     1.81670   2.23960   1.16140    51    48    52    41
 C     0.77200   2.73480   0.37810    52    50    51    13
