    52
C52-C1-250                                                                      
 C    -3.46270  -0.98580  -1.09090     1    11    32     2
 C    -3.13430  -1.85160  -0.12700     2     1    27     3
 C    -2.03040  -2.60340  -0.50990     3    17     2     4
 C    -1.58660  -1.94880  -1.70680     4    11     6     3
 C     0.26350  -0.49660  -2.41110     5     9    14     6
 C    -0.24330  -1.81700  -2.00760     6     4     7     5
 C     0.61820  -2.67490  -1.33310     7    21     6    16
 C     2.08900   1.09570  -1.90740     8     9    22    15
 C     1.66310  -0.21540  -2.15330     9     8    20     5
 C    -2.05160   0.32790  -2.16670    10    11    14    39
 C    -2.46350  -0.95420  -1.94940    11     1     4    10
 C    -1.08010   2.67630  -1.12830    12    38    50    13
 C    -0.21070   1.91720  -1.98680    13    15    14    12
 C    -0.68590   0.62510  -2.39950    14    10    13     5
 C     1.15900   2.14880  -1.79860    15    13    52     8
 C     0.22340  -3.30940  -0.11550    16    17    18     7
 C    -1.04260  -3.02480   0.36930    17    16     3    25
 C     1.37950  -3.21330   0.64680    18    19    23    16
 C     2.44180  -2.85350  -0.06930    19    18    33    21
 C     2.46610  -1.20960  -1.54750    20    21     9    48
 C     1.93510  -2.40840  -1.21960    21    19     7    20
 C     3.17940   1.40530  -1.07810    22    49    47     8
 C     1.35960  -2.30810   1.67730    23    24    18    34
 C     0.15620  -1.86010   2.13240    24    23    36    25
 C    -1.06270  -2.29260   1.59680    25    26    24    17
 C    -2.03180  -1.33100   1.86600    26    27    25    28
 C    -3.12190  -1.11880   1.03660    27     2    26    31
 C    -1.36150  -0.25140   2.44390    28    29    36    26
 C    -1.78490   1.02670   2.18380    29    28    46    30
 C    -2.85530   1.24090   1.30790    30    37    31    29
 C    -3.53190   0.19090   0.72170    31    30    32    27
 C    -3.72050   0.24870  -0.66140    32     1    31    39
 C     3.17570  -1.85620   0.41940    33    19    48    34
 C     2.44270  -1.42720   1.54230    34    23    33    42
 C     1.04150   0.42080   2.40450    35    36    45    42
 C    -0.00190  -0.54440   2.56000    36    24    28    35
 C    -2.43570   2.29620   0.54470    37    40    30    38
 C    -2.36530   2.22070  -0.82960    38    39    37    12
 C    -2.93510   1.13540  -1.40610    39    38    32    10
 C    -1.28890   2.80200   1.01180    40    37    50    46
 C     3.01090   0.81590   1.01400    41    43    42    47
 C     2.29300  -0.06000   1.85130    42    41    34    35
 C     2.57580   2.08740   0.79060    43    49    41    44
 C     1.37770   2.53940   1.25940    44    43    45    51
 C     0.57500   1.76220   2.11830    45    46    44    35
 C    -0.80390   2.00230   2.02530    46    40    29    45
 C     3.57460   0.39590  -0.22960    47    48    22    41
 C     3.43260  -0.90370  -0.53880    48    47    33    20
 C     2.81440   2.51640  -0.46170    49    22    52    43
 C    -0.48810   3.25890   0.01750    50    51    40    12
 C     0.84790   3.29880   0.17120    51    50    52    44
 C     1.68370   3.06780  -0.87570    52    49    51    15
