    52
C52-C2-335                                                                      
 C     3.18420  -1.63800   0.07590     1    42     2     3
 C     3.74170  -0.45460   0.52460     2     9    29     1
 C     2.16210  -2.20660   0.82350     3     1     4     7
 C     1.06110  -2.82250   0.22150     4     3    14     6
 C    -0.54690  -2.57110  -1.53550     5    16     6    31
 C     0.80170  -2.66740  -1.18770     6    41     5     4
 C     1.65380  -1.56230   1.97070     7    10     8     3
 C     2.14770  -0.31300   2.29410     8     9     7    25
 C     3.19590   0.18650   1.57870     9    17     2     8
 C     0.31500  -1.85680   2.10600    10     7    14    11
 C    -0.64700  -0.89270   2.56020    11    12    10    24
 C    -1.97010  -1.09980   2.08970    12    15    46    11
 C    -1.29140  -2.89510   0.66910    13    14    15    16
 C    -0.01910  -2.78610   1.10830    14    13     4    10
 C    -2.26670  -2.11960   1.22030    15    49    13    12
 C    -1.56890  -2.87670  -0.67050    16    52    13     5
 C     2.88250   1.45280   1.24840    17     9    20    18
 C     3.18390   1.64180  -0.08660    18    17    19    29
 C     2.16690   2.21780  -0.82480    19    18    23    30
 C     1.70390   1.83980   1.83060    20    17    22    25
 C    -0.54070   2.57360   1.54270    21    40    22    26
 C     0.80270   2.67230   1.17740    22    20    21    23
 C     1.06190   2.82850  -0.22990    23    35    19    22
 C    -0.16090   0.45720   2.70460    24    25    26    11
 C     1.21710   0.70270   2.54110    25     8    24    20
 C    -1.05110   1.48370   2.30360    26    47    24    21
 C     3.19840  -0.19190  -1.57250    27    42    29    28
 C     2.14420   0.31700  -2.27990    28    27    30    32
 C     3.74220   0.45140  -0.51510    29    27     2    18
 C     1.65480   1.57270  -1.97200    30    36    28    19
 C    -1.05550  -1.47590  -2.28930    31    51    33     5
 C     1.21200  -0.70200  -2.51770    32    28    33    41
 C    -0.16900  -0.44320  -2.68990    33    32    31    39
 C    -1.28640   2.89590  -0.66740    34    35    37    40
 C    -0.01330   2.78330  -1.11600    35    34    23    36
 C     0.31630   1.86440  -2.12630    36    30    35    39
 C    -2.25550   2.11910  -1.23120    37    44    34    38
 C    -1.97810   1.10090  -2.10940    38    37    50    39
 C    -0.65590   0.90870  -2.57060    39    38    36    33
 C    -1.55620   2.87150   0.67190    40    43    34    21
 C     1.71480  -1.84310  -1.83070    41    42     6    32
 C     2.89680  -1.46700  -1.25780    42    27    41     1
 C    -2.66300   2.14560   0.90420    43    40    47    44
 C    -3.15480   1.71810  -0.29370    44    48    37    43
 C    -3.52270  -0.44750   0.55130    45    49    48    46
 C    -2.82500  -0.04690   1.73290    46    47    12    45
 C    -2.37380   1.24280   1.88290    47    43    46    26
 C    -3.51710   0.43930  -0.54260    48    44    45    50
 C    -3.17670  -1.73730   0.29160    49    15    45    52
 C    -2.82670   0.04610  -1.73050    50    51    38    48
 C    -2.38210  -1.25140  -1.86870    51    52    50    31
 C    -2.68870  -2.16140  -0.90580    52    16    51    49
