    52
C52-C1-168                                                                      
 C    -3.25640  -0.31950   1.58360     1    33     2     6
 C    -3.34940   0.86710   0.89770     2     3     1     9
 C    -2.42010   1.82650   1.21280     3     2    10     4
 C    -1.37580   1.58460   2.14300     4    14     5     3
 C    -1.09640   0.28260   2.62620     5     6     4    13
 C    -2.10040  -0.64950   2.28700     6     1    36     5
 C    -2.92720   1.22030  -1.41670     7    15     9     8
 C    -2.03780   2.26030  -1.11270     8    10     7    16
 C    -3.65780   0.54830  -0.44520     9     7    20     2
 C    -1.84300   2.60390   0.20050    10    11     8     3
 C    -0.59400   2.89790   0.59690    11    14    10    30
 C     0.57380  -1.43600   2.23680    12    48    35    13
 C     0.30890  -0.09940   2.68770    13    12    51     5
 C    -0.32050   2.34760   1.78830    14    11    52     4
 C    -2.25240   0.45570  -2.32090    15    17     7    18
 C    -0.84900   2.12980  -1.89000    16    17    31     8
 C    -1.06260   0.99320  -2.60530    17    15    27    16
 C    -2.11540  -0.90030  -2.23900    18    15    19    21
 C    -2.82850  -1.56180  -1.27770    19    18    20    38
 C    -3.73160  -0.84530  -0.47510    20    33     9    19
 C    -0.76080  -1.15880  -2.48490    21    18    22    27
 C    -0.04050  -2.12670  -1.75650    22    23    21    37
 C     1.35350  -1.95270  -1.69980    23    41    22    25
 C     3.16820  -0.67990  -1.53530    24    28    25    40
 C     2.00290  -0.79660  -2.21100    25    24    26    23
 C     1.22670   0.31760  -2.55480    26    27    25    29
 C    -0.10480   0.06220  -2.80740    27    17    26    21
 C     3.63640   0.47790  -1.02390    28    24    44    32
 C     1.57790   1.57500  -1.88220    29    32    31    26
 C     0.55330   2.89760  -0.14220    30    11    45    31
 C     0.47210   2.41060  -1.46430    31    30    16    29
 C     2.75240   1.53540  -1.06950    32    28    47    29
 C    -3.58540  -1.32810   0.75560    33    34    20     1
 C    -2.63060  -2.24710   0.81970    34    33    36    38
 C    -0.43980  -2.22210   1.70100    35    36    12    39
 C    -1.74730  -1.91740   1.81110    36    35    34     6
 C    -0.73440  -2.71780  -0.64120    37    38    39    22
 C    -2.10840  -2.45350  -0.45490    38    34    19    37
 C     0.08240  -2.78400   0.52740    39    42    35    37
 C     3.29110  -1.63000  -0.56770    40    41    24    43
 C     2.14840  -2.36810  -0.61950    41    40    42    23
 C     1.43580  -2.57740   0.53470    42    39    41    48
 C     3.79120  -1.00430   0.54190    43    44    40    49
 C     4.10900   0.26930   0.23340    44    46    43    28
 C     1.58890   2.54780   0.71220    45    47    30    52
 C     3.44840   1.11030   1.04100    46    44    47    50
 C     2.73660   2.00270   0.26280    47    45    46    32
 C     1.77920  -1.77660   1.63970    48    49    12    42
 C     2.87860  -0.94760   1.59010    49    48    43    50
 C     2.66330   0.39020   1.95480    50    49    46    51
 C     1.40090   0.82610   2.41880    51    52    50    13
 C     0.98860   2.06310   1.89680    52    14    51    45
