    52
C52-Cs-319                                                                      
 C    -3.06850   1.38660  -1.22110     1    36     2     3
 C    -3.80690   0.68010  -0.28150     2     9    22     1
 C    -2.27560   0.69430  -2.12720     3     1     7     4
 C    -0.96870   1.11910  -2.41830     4     3    15     6
 C     1.04200   2.16910  -1.64000     5     6    13    40
 C    -0.34280   2.20920  -1.75020     6     5    35     4
 C    -2.28160  -0.70310  -2.12980     7     8     3    10
 C    -3.06790  -1.39560  -1.21420     8    20     9     7
 C    -3.80200  -0.67160  -0.28300     9     2    18     8
 C    -0.97120  -1.11600  -2.42240    10     7    15    11
 C    -0.33710  -2.20500  -1.75910    11    12    19    10
 C     1.04250  -2.16520  -1.64250    12    11    16    34
 C     1.86950   1.18890  -2.22110    13    52     5    14
 C     1.22130   0.00090  -2.65670    14    15    13    16
 C    -0.17240   0.00200  -2.73510    15    14     4    10
 C     1.86870  -1.18820  -2.22160    16    51    12    14
 C    -2.56930  -2.08670   0.80660    17    18    20    24
 C    -3.41280  -1.06870   0.97590    18    17    23     9
 C    -1.08400  -2.70890  -0.68580    19    20    11    31
 C    -2.37430  -2.33230  -0.50430    20    17    19     8
 C    -2.57270   2.08660   0.81250    21    22    36    29
 C    -3.41920   1.07230   0.98010    22    21    23     2
 C    -3.04040   0.00090   1.75750    23    18    22    27
 C    -1.40600  -2.22770   1.48100    24    17    26    31
 C     0.39860  -1.19160   2.55340    25    41    26    32
 C    -0.98570  -1.23210   2.39260    26    25    24    27
 C    -1.77760   0.00670   2.43510    27    23    28    26
 C    -0.98930   1.24430   2.38910    28    42    29    27
 C    -1.40510   2.24150   1.47800    29    21    39    28
 C     0.90520  -2.66060   0.73370    30    31    34    32
 C    -0.46340  -2.78900   0.58230    31    30    19    24
 C     1.38060  -1.93560   1.84730    32    30    49    25
 C     2.89690  -1.87100  -0.40800    33    51    34    48
 C     1.68700  -2.51240  -0.42740    34    33    30    12
 C    -1.08500   2.71370  -0.67820    35    36     6    39
 C    -2.37300   2.32390  -0.49940    36    21    35     1
 C     1.35710   1.92660   1.83220    37    38    43    42
 C     0.90470   2.67840   0.72600    38    39    40    37
 C    -0.46430   2.80680   0.58820    39    38    29    35
 C     1.69040   2.52900  -0.42890    40    45    38     5
 C     1.01270  -0.00170   2.77030    41    46    42    25
 C     0.39040   1.17540   2.55490    42    41    28    37
 C     2.57140   1.19880   1.77360    43    46    44    37
 C     3.37950   1.20360   0.66070    44    45    43    47
 C     2.89140   1.87590  -0.42800    45    52    40    44
 C     2.27400  -0.01440   2.33760    46    41    49    43
 C     3.87160  -0.00440   0.14550    47    50    44    48
 C     3.41200  -1.21440   0.68860    48    49    33    47
 C     2.60240  -1.22550   1.79620    49    46    48    32
 C     3.70960  -0.00840  -1.22590    50    51    52    47
 C     3.06480  -1.13690  -1.54050    51    50    33    16
 C     3.07060   1.13590  -1.54480    52    50    45    13
