    52
C52-C1-289                                                                      
 C    -0.74650  -2.96440   0.88990     1     2     9    16
 C    -1.83790  -2.24190   1.27430     2     1     3    15
 C    -1.68100  -1.18240   2.17930     3    37     2     6
 C    -1.32160   1.53530   2.14730     4    36    42     5
 C    -0.19120   0.74080   2.53350     5     4    11     6
 C    -0.37520  -0.72090   2.54920     6     8     3     5
 C     1.99700  -0.98190   2.00620     7    20    10     8
 C     0.72940  -1.57620   2.24220     8     7     6     9
 C     0.50860  -2.77330   1.47360     9    19     1     8
 C     2.14990   0.41290   1.92630    10     7    11    50
 C     1.08530   1.30550   2.18530    11    10    12     5
 C     1.17010   2.54870   1.48990    12    52    41    11
 C    -2.53230  -2.03060  -0.97140    13    21    15    14
 C    -1.33360  -2.62170  -1.37400    14    16    13    22
 C    -2.86370  -1.89400   0.36810    15    26    13     2
 C    -0.52900  -3.26050  -0.46720    16    17    14     1
 C     0.80580  -3.28490  -0.61680    17    16    19    30
 C     2.59960  -2.56690   0.37440    18    19    20    48
 C     1.46080  -3.20840   0.56940    19    18    17     9
 C     2.93590  -1.52620   1.13680    20    18    51     7
 C    -2.63060  -0.86270  -1.68880    21    23    24    13
 C    -0.66490  -1.75230  -2.27530    22    23    31    14
 C    -1.51090  -0.71060  -2.40430    23    21    34    22
 C    -3.08000   0.35540  -1.26450    24    21    25    27
 C    -3.57860   0.43060   0.01850    25    24    39    26
 C    -3.39260  -0.70710   0.80630    26    37    15    25
 C    -2.14240   1.30220  -1.75830    27    28    24    34
 C    -1.75140   2.44670  -1.03740    28    29    27    38
 C    -0.47180   2.93860  -1.28370    29    28    40    35
 C     1.46030  -2.45970  -1.54190    30    48    17    31
 C     0.72810  -1.53560  -2.30520    31    30    22    32
 C     1.20770  -0.14970  -2.40520    32    31    44    33
 C     0.20500   0.92450  -2.53350    33    35    34    32
 C    -1.14920   0.58300  -2.48680    34    23    33    27
 C     0.48470   2.19460  -2.03240    35    46    33    29
 C    -2.51250   0.96670   1.86110    36    37     4    39
 C    -2.69980  -0.33360   1.90540    37    36    26     3
 C    -2.22410   2.46680   0.30460    38    39    28    42
 C    -3.06770   1.49080   0.73970    39    36    38    25
 C     0.26490   3.55720  -0.27610    40    43    41    29
 C    -0.01060   3.14860   1.00250    41    42    40    12
 C    -1.21480   2.63530   1.29420    42    41     4    38
 C     1.55660   3.33970  -0.47000    43    40    52    46
 C     2.44840   0.18530  -1.68770    44    47    45    32
 C     2.58390   1.49580  -1.18160    45    46    44    49
 C     1.69060   2.47510  -1.47900    46    43    35    45
 C     3.07910  -0.80310  -0.91630    47    48    51    44
 C     2.60190  -2.07590  -0.89830    48    47    18    30
 C     2.98350   1.78070   0.16950    49    50    52    45
 C     3.14980   0.67760   0.93800    50    51    49    10
 C     3.43700  -0.51420   0.40690    51    50    20    47
 C     2.18820   2.80370   0.56660    52    43    49    12
