    52
C52-D2-354                                                                      
 C    -2.95110   0.19520  -1.84380     1    17     4    25
 C    -0.87080  -1.63110  -2.03250     2     3    16     6
 C     0.32560  -2.26490  -1.66550     3     9    22     2
 C    -1.76180   0.54380  -2.43120     4    11     1     6
 C     0.66420   0.29850  -2.59500     5     8     6    14
 C    -0.67300  -0.28910  -2.60830     6     4     5     2
 C     2.92870  -0.20310  -1.80570     7    15     8    44
 C     1.74410  -0.54320  -2.40190     8     9     7     5
 C     1.55450  -1.82060  -1.98020     9     3    45     8
 C    -0.33340   2.26950  -1.65140    10    11    14    40
 C    -1.56040   1.81580  -1.97520    11    10    26     4
 C     1.83070   2.59960   0.00620    12    50    39    13
 C     2.05430   1.91800  -1.23670    13    15    12    14
 C     0.86420   1.63540  -2.01480    14    10    13     5
 C     3.13850   0.99820  -1.19350    15     7    52    13
 C    -2.06000  -1.91790  -1.25070    16    17    19     2
 C    -3.14350  -1.00060  -1.22030    17     1    18    16
 C    -3.88480  -0.70030  -0.06420    18    21    24    17
 C    -1.83000  -2.57560   0.00070    19    20    23    16
 C    -2.50900  -2.14740   1.11100    20    21    33    19
 C    -3.46300  -1.21370   1.09130    21    18    20    35
 C     0.51960  -2.86430  -0.41370    22    23    46     3
 C    -0.52820  -2.84980   0.41170    23    22    19    41
 C    -3.87370   0.67870   0.04210    24    25    18    27
 C    -3.46480   1.23620  -1.09770    25    26    24     1
 C    -2.53180   2.18150  -1.10710    26    25    11    30
 C    -3.13070   0.97500   1.20950    27    35    24    29
 C    -0.87140   1.61830   2.00830    28    32    29    37
 C    -2.05990   1.91180   1.22220    29    27    30    28
 C    -1.82980   2.61320  -0.01090    30    26    40    29
 C     1.55060   1.80480   1.95890    31    32    50    38
 C     0.32520   2.25350   1.64280    32    31    39    28
 C    -1.55430  -1.82270   2.01020    33    41    20    34
 C    -1.77340  -0.55180   2.45980    34    33    35    37
 C    -2.96020  -0.20600   1.86640    35    27    21    34
 C     0.66540  -0.30140   2.58960    36    38    37    42
 C    -0.67760   0.28370   2.60660    37    34    36    28
 C     1.75560   0.53150   2.39430    38    31    43    36
 C     0.52470   2.88320   0.40770    39    40    12    32
 C    -0.52790   2.89290  -0.40910    40    39    30    10
 C    -0.33130  -2.28190   1.67870    41    33    42    23
 C     0.87060  -1.64900   2.02210    42    41    49    36
 C     2.95000   0.19760   1.81600    43    48    38    51
 C     3.46910  -1.22890  -1.07370    44    47    45     7
 C     2.52420  -2.17630  -1.10400    45    44     9    46
 C     1.82740  -2.60310  -0.00360    46    45    22    49
 C     3.90510  -0.67130   0.05770    47    44    52    48
 C     3.13970  -1.00220   1.20160    48    43    47    49
 C     2.06460  -1.92760   1.23870    49    48    46    42
 C     2.53780   2.16770   1.10890    50    51    31    12
 C     3.49620   1.23800   1.08540    51    52    50    43
 C     3.92350   0.70550  -0.05410    52    51    47    15
