    52
C52-C1-329                                                                      
 C    -0.66300   0.18740  -2.76430     1     2     4    34
 C    -1.41280  -0.91940  -2.48410     2     3     1    17
 C    -2.63260  -0.77860  -1.91270     3     7     2    33
 C     0.72640   0.12450  -2.73060     4     1    39     5
 C     1.43330  -1.06280  -2.35840     5     6     4    16
 C     2.70680  -0.85600  -1.76650     6    18    40     5
 C    -2.87180  -1.79230  -1.05820     7     8     3    10
 C    -3.56360  -1.30810  -0.01950     8     7     9    29
 C    -3.00880  -1.45440   1.19530     9     8    19    13
 C    -1.69530  -2.50780  -0.95040    10     7    12    17
 C     0.21020  -2.89780   0.42090    11    12    15    22
 C    -1.16580  -2.77700   0.33730    12    11    10    13
 C    -1.83720  -2.14310   1.41560    13     9    24    12
 C     2.29720  -2.45750  -0.18260    14    18    50    15
 C     1.07840  -2.76700  -0.68660    15    14    11    16
 C     0.59770  -2.14250  -1.86170    16    17    15     5
 C    -0.79330  -2.05390  -1.95100    17    16     2    10
 C     3.17320  -1.60660  -0.71820    18    14     6    52
 C    -2.91490  -0.25130   1.78980    19     9    25    28
 C    -1.53500   2.04510   1.74120    20    21    30    27
 C    -0.62980   2.82090   1.08830    21    35    45    20
 C     0.93670  -2.40260   1.53660    22    50    23    11
 C     0.31060  -1.50510   2.41310    23    24    22    48
 C    -1.07480  -1.39870   2.34470    24    23    25    13
 C    -1.74790  -0.16950   2.51300    25    19    27    24
 C     0.39560   0.91010   2.64930    26    48    44    27
 C    -1.01420   1.01420   2.56700    27    25    26    20
 C    -3.36610   0.71660   0.91740    28    30    19    29
 C    -3.72040   0.05080  -0.23880    29    28     8    33
 C    -2.61530   1.85750   0.85020    30    28    20    31
 C    -2.19170   2.35680  -0.40890    31    35    32    30
 C    -2.33030   1.56820  -1.57830    32    33    31    34
 C    -3.13140   0.42630  -1.44460    33     3    29    32
 C    -1.10780   1.45430  -2.32130    34    37     1    32
 C    -1.00550   2.99890  -0.18630    35    21    36    31
 C     0.11510   2.99620  -0.95550    36    35    37    46
 C     0.06900   2.16760  -2.06120    37    36    39    34
 C     2.35380   1.51640  -1.64100    38    40    39    47
 C     1.18410   1.40180  -2.35880    39    38    37     4
 C     3.11810   0.42060  -1.42240    40    38    43     6
 C     2.45610   1.19130   1.68900    41    44    51    42
 C     3.11050   1.47420   0.46910    42    43    47    41
 C     3.70080   0.42410  -0.18570    43    52    40    42
 C     1.26640   1.82140   2.01960    44    45    41    26
 C     0.71900   2.76680   1.17990    45    21    44    46
 C     1.23520   2.94280  -0.10490    46    47    45    36
 C     2.37760   2.25670  -0.44690    47    46    38    42
 C     1.07580  -0.32070   2.64470    48    26    51    23
 C     3.04450  -1.14790   1.45320    49    50    52    51
 C     2.22490  -2.20300   1.13860    50    14    22    49
 C     2.38480  -0.14140   2.14360    51    49    41    48
 C     3.72540  -0.84340   0.28550    52    43    18    49
