    52
C52-Cs-67                                                                       
 C    -1.35940  -2.78830   1.02940     1     3     2    29
 C    -0.06200  -2.91440   0.68740     2     1    23     8
 C    -2.18930  -2.96890   0.00190     3     4     1     7
 C    -3.17690  -2.09820  -0.00870     4     3    47    39
 C     2.17570  -2.28480  -0.72640     5     6     9    22
 C     3.23360  -1.49460  -1.05350     6    10     5    19
 C    -1.36810  -2.81060  -1.04070     7     3     8    15
 C    -0.05960  -2.94740  -0.73130     8     7     9     2
 C     0.95530  -2.30420  -1.38900     9     8     5    17
 C     4.04380  -1.17390  -0.01380    10    11     6    21
 C     4.30540   0.12290   0.03490    11    10    32    12
 C     3.58860   0.62790  -1.01900    12    14    11    19
 C     1.74200   2.08750  -1.27140    13    14    34    20
 C     2.90380   1.74140  -0.64250    14    12    13    31
 C    -1.80700  -1.72800  -1.75340    15     7    47    16
 C    -0.85300  -0.82450  -2.29800    16    15    50    17
 C     0.57590  -1.15140  -2.20140    17    18     9    16
 C     1.58260  -0.12220  -2.23780    18    20    19    17
 C     2.87740  -0.34380  -1.72510    19     6    12    18
 C     1.08080   1.18620  -2.12510    20    51    18    13
 C     3.19830  -1.43950   1.01360    21    10    22    24
 C     2.16380  -2.25850   0.69730    22    21    23     5
 C     0.95060  -2.26570   1.34800    23     2    22    27
 C     2.91490  -0.28400   1.71270    24    21    32    26
 C     1.11880   1.23030   2.12440    25    35    26    30
 C     1.60340  -0.09430   2.21790    26    25    24    27
 C     0.58790  -1.12060   2.17420    27    26    28    23
 C    -0.83150  -0.80600   2.27650    28    29    36    27
 C    -1.78510  -1.70970   1.74230    29     1    39    28
 C     1.81180   2.19030   1.35080    30    31    33    25
 C     2.99440   1.82320   0.75780    31    32    30    14
 C     3.70270   0.71580   1.10790    32    31    11    24
 C     0.78540   2.87440   0.72560    33    43    30    34
 C     0.75150   2.82190  -0.67330    34    13    44    33
 C    -0.23700   1.52720   2.13150    35    25    43    36
 C    -1.25680   0.56310   2.28260    36    35    37    28
 C    -2.53240   0.89750   1.74940    37    40    38    36
 C    -3.39470  -0.03550   1.15220    38    39    37    52
 C    -3.01660  -1.33590   1.16060    39    38     4    29
 C    -2.73070   2.07220   1.04190    40    41    42    37
 C    -3.54540   1.80250   0.00440    41    52    40    45
 C    -1.63750   2.80640   0.70020    42    40    43    46
 C    -0.43400   2.66370   1.33040    43    42    33    35
 C    -0.45060   2.61490  -1.30390    44    46    34    51
 C    -2.74490   2.06190  -1.05440    45    41    46    49
 C    -1.65740   2.79400  -0.69750    46    45    44    42
 C    -3.04290  -1.34600  -1.17480    47    48     4    15
 C    -3.42450  -0.04520  -1.16920    48    47    52    49
 C    -2.56330   0.88980  -1.77550    49    45    48    50
 C    -1.28500   0.54820  -2.30850    50    51    49    16
 C    -0.26380   1.50380  -2.14690    51    20    44    50
 C    -3.94150   0.53430  -0.00920    52    41    48    38
