    52
C52-C1-47                                                                       
 C    -4.05270  -1.35970  -0.22320     1     5    34     2
 C    -2.93770  -1.96520  -0.72690     2     1     7    36
 C     1.16460  -2.27160  -1.27470     3     4    26    44
 C    -0.19420  -2.25530  -1.18090     4     3    37     6
 C    -3.82900  -1.32810   1.09810     5     1     8     9
 C    -0.77290  -2.59890   0.09740     6     7    27     4
 C    -2.11680  -2.43670   0.26530     7     6     2     8
 C    -2.67810  -1.95260   1.42530     8     5     7    19
 C    -3.58360  -0.02750   1.38770     9     5    10    12
 C    -3.82150   0.76030   0.27260    10    11     9    34
 C    -2.99400   1.83550   0.11900    11    10    28    15
 C    -2.37780   0.11990   2.07310    12    14     9    19
 C    -0.14740   1.09360   2.25610    13    17    14    22
 C    -1.54710   1.22950   1.98830    14    12    15    13
 C    -1.95220   2.17810   1.00000    15    30    11    14
 C     2.02420   1.86680   1.52760    16    17    23    45
 C     0.70820   2.06030   1.70160    17    16    29    13
 C    -0.40230  -1.30960   2.10150    18    19    27    22
 C    -1.78770  -1.15010   2.10850    19     8    18    12
 C     2.43080  -1.53290   1.52620    20    24    21    48
 C     1.92950  -0.35670   2.13250    21    23    20    22
 C     0.50130  -0.21800   2.38250    22    18    21    13
 C     2.73740   0.75830   1.81040    23    16    50    21
 C     1.46220  -2.36870   0.95480    24    27    26    20
 C     3.20860  -2.25910  -0.37330    25    26    48    52
 C     1.98200  -2.72860  -0.26450    26    25    24     3
 C     0.11830  -2.29760   1.19160    27    24    18     6
 C    -2.42380   2.05900  -1.11920    28    31    32    11
 C     0.31420   2.87630   0.64530    29    30    17    39
 C    -0.97210   2.85500   0.29940    30    29    31    15
 C    -1.25420   2.67290  -1.00850    31    28    30    41
 C    -2.30640   1.03130  -2.00930    32    33    28    35
 C    -3.07500  -0.06870  -1.78930    33    32    34    36
 C    -4.04830  -0.12590  -0.79460    34     1    33    10
 C    -0.93390   1.00450  -2.33860    35    41    38    32
 C    -2.31680  -1.23860  -1.71930    36     2    33    37
 C    -0.93680  -1.32830  -1.97980    37    36     4    38
 C    -0.17310  -0.17710  -2.43210    38    35    43    37
 C     1.38080   2.83860  -0.26600    39    45    29    40
 C     1.07240   2.18060  -1.50570    40    41    39    42
 C    -0.28160   2.12790  -1.80640    41    31    40    35
 C     1.95070   1.10610  -1.89390    42    40    47    43
 C     1.25650  -0.12640  -2.30550    43    44    38    42
 C     1.93310  -1.31290  -1.94380    44    52     3    43
 C     2.48050   2.43920   0.38650    45    46    39    16
 C     3.44390   1.65440  -0.06090    46    45    47    50
 C     3.22370   0.95250  -1.23090    47    51    46    42
 C     3.59940  -1.57600   0.72200    48    25    49    20
 C     4.16650  -0.40740   0.31030    49    50    48    51
 C     3.80820   0.73190   0.90750    50    49    46    23
 C     3.81630  -0.26820  -1.02820    51    52    47    49
 C     3.20180  -1.38340  -1.41220    52    51    25    44
