    52
C52-C1-123                                                                      
 C     2.52070  -2.03900   1.27680     1     2     4    37
 C     2.52500  -0.93300   1.98820     2     1    36     7
 C     1.54750   0.99950   2.24760     3     7    11    16
 C     1.32070  -2.61120   0.96120     4     1    13     5
 C     0.08290  -2.20480   1.50660     5     4    14     6
 C     0.10070  -0.99650   2.34090     6     7     9     5
 C     1.36780  -0.37840   2.44700     7     2     3     6
 C    -2.30400  -0.76400   1.98260     8    23    15     9
 C    -1.07050  -0.19670   2.39070     9     8     6    10
 C    -0.90570   1.24650   2.20050    10    24    11     9
 C     0.40180   1.78040   2.01990    11     3    12    10
 C     0.58100   2.71940   0.98000    12    17    20    11
 C     1.44930  -2.87670  -0.37830    13    50    38     4
 C    -1.10350  -2.45690   0.74650    14    15     5    52
 C    -2.32760  -1.89730   1.13980    15    49    14     8
 C     2.81310   1.17350   1.60460    16    36    18     3
 C     1.75980   2.77420   0.29920    17    29    12    18
 C     2.88880   2.05760   0.55980    18    17    16    25
 C    -1.68350   2.49840   0.30150    19    20    39    24
 C    -0.43290   2.87530   0.04950    20    19    12    28
 C    -3.16180   1.20530   1.26090    21    23    24    46
 C    -4.15190  -0.64720   0.66150    22    23    49    45
 C    -3.44270  -0.05440   1.63280    23    22    21     8
 C    -1.98530   1.81830   1.48260    24    21    19    10
 C     3.28440   1.56110  -0.68180    25    30    34    18
 C     2.70670  -0.19370  -1.84880    26    27    32    34
 C     2.19310  -1.47230  -1.79360    27    38    26    44
 C     0.13020   2.71110  -1.21360    28    29    20    33
 C     1.46680   2.76080  -1.02350    29    30    28    17
 C     2.33990   1.93990  -1.58180    30    29    32    25
 C     0.44600   0.70030  -2.48760    31    43    32    33
 C     1.85150   0.85660  -2.23800    32    30    26    31
 C    -0.49460   1.74210  -2.04550    33    28    40    31
 C     3.63930   0.24200  -0.85060    34    25    35    26
 C     3.88170  -0.60350   0.24390    35    37    34    36
 C     3.37960  -0.05570   1.43660    36     2    16    35
 C     3.37290  -1.89120   0.19930    37    38     1    35
 C     2.61390  -2.34000  -0.81820    38    37    13    27
 C    -2.55310   2.02280  -0.67070    39    46    19    40
 C    -1.87020   1.44180  -1.79880    40    41    33    39
 C    -2.35660   0.13950  -2.03370    41    47    42    40
 C    -1.40580  -0.87090  -2.20780    42    43    41    51
 C    -0.05370  -0.63800  -2.44660    43    42    44    31
 C     0.83010  -1.65990  -2.04270    44    27    43    50
 C    -4.17730   0.22800  -0.41660    45    46    47    22
 C    -3.59730   1.38390  -0.03680    46    45    39    21
 C    -3.44430  -0.40690  -1.37680    47    48    45    41
 C    -3.09430  -1.65040  -0.97910    48    49    51    47
 C    -3.44620  -1.75880   0.31360    49    48    22    15
 C     0.36730  -2.65360  -1.14900    50    13    52    44
 C    -1.87550  -1.97880  -1.45530    51    48    52    42
 C    -0.92590  -2.64500  -0.69580    52    50    51    14
