    52
C52-C1-398                                                                      
 C    -2.83210   0.43020   1.76720     1     3     5     2
 C    -3.53180   0.79020   0.64290     2     1    28    10
 C    -1.72910   1.11270   2.19590     3     1     8     6
 C    -1.57390  -1.61050   2.01760     4     5    39     7
 C    -2.71720  -0.93000   1.69990     5    29     1     4
 C    -0.58710   0.43840   2.67470     6    16     3     7
 C    -0.43790  -0.98360   2.58530     7     4     6    18
 C    -1.29120   2.25890   1.52420     8    12     3     9
 C    -1.90680   2.57700   0.26290     9    10    11     8
 C    -2.98570   1.78500  -0.15120    10     2    22     9
 C    -0.92730   2.87700  -0.70890    11    14     9    20
 C     0.07550   2.39940   1.77360    12    13     8    16
 C     0.93730   2.93320   0.83580    13    14    12    49
 C     0.37600   3.10200  -0.38810    14    26    13    11
 C     1.78830   0.79200   2.34010    15    16    48    19
 C     0.50430   1.27590   2.49050    16    15     6    12
 C     0.96340  -2.56010   1.36550    17    38    50    18
 C     0.87940  -1.48870   2.31920    18    19     7    17
 C     1.98960  -0.60310   2.29470    19    52    15    18
 C    -0.85930   2.15880  -1.92830    20    21    23    11
 C    -1.82620   1.24270  -2.17580    21    20    22    35
 C    -2.92460   1.15590  -1.38720    22    27    21    10
 C     0.48440   1.90710  -2.20510    23    26    20    24
 C     0.92950   0.62450  -2.60980    24    23    25    34
 C     2.23810   0.28460  -2.12170    25    42    46    24
 C     1.22560   2.61810  -1.30060    26    14    44    23
 C    -3.35960  -0.11620  -1.31360    27    22    28    30
 C    -3.83830  -0.34990  -0.06990    28    29    27     2
 C    -3.31940  -1.40980   0.57800    29    28     5    33
 C    -2.41040  -0.91800  -1.92290    30    27    32    35
 C    -0.65790  -2.46510  -1.56960    31    37    32    36
 C    -1.97210  -2.10470  -1.29540    32    31    30    33
 C    -2.43410  -2.31570   0.05120    33    29    39    32
 C    -0.08260  -0.40400  -2.73320    34    36    35    24
 C    -1.44700  -0.06300  -2.53980    35    21    34    30
 C     0.27630  -1.70410  -2.31370    36    43    34    31
 C     0.11480  -3.05200  -0.59550    37    40    38    31
 C    -0.20780  -3.00060   0.72410    38    39    37    17
 C    -1.45450  -2.59350   1.03330    39    38     4    33
 C     1.40540  -2.80560  -0.76260    40    37    50    43
 C     3.36800  -1.01280  -0.67030    41    45    42    51
 C     2.54270  -1.04290  -1.78560    42    43    41    25
 C     1.56510  -1.98630  -1.85660    43    42    40    36
 C     2.38760   2.23780  -0.73350    44    26    46    49
 C     3.63730   0.27770  -0.35670    45    41    46    47
 C     2.98980   1.10230  -1.22870    46    45    44    25
 C     3.47890   0.41590   0.99090    47    52    45    48
 C     2.71440   1.42950   1.49540    48    47    49    15
 C     2.23290   2.43140   0.66600    49    48    13    44
 C     2.04000  -2.60960   0.43820    50    51    40    17
 C     3.08090  -1.73400   0.48830    51    50    52    41
 C     3.08640  -0.79140   1.47250    52    47    51    19
