    52
C52-C1-309                                                                      
 C    -2.49650  -1.51870  -1.33280     1    11     2     3
 C    -1.32430  -2.04210  -1.89490     2     6     4     1
 C    -2.87670  -1.92490  -0.03770     3    27    16     1
 C    -0.55720  -3.01660  -1.25380     4    28     5     2
 C     0.82790  -2.88150  -1.19720     5     8     4    31
 C    -0.68900  -0.96980  -2.51990     6     7    14     2
 C     0.69190  -0.89970  -2.52360     7     6    21     8
 C     1.47450  -1.86290  -1.88620     8    51     5     7
 C    -2.76760   2.02120  -0.86340     9    17    10    13
 C    -3.21870   0.73320  -0.87270    10     9    11    15
 C    -2.60650  -0.18260  -1.69820    11    10     1    14
 C    -0.85360   1.46980  -2.29290    12    13    14    22
 C    -1.57380   2.36520  -1.47310    13     9    19    12
 C    -1.45130   0.18420  -2.41470    14     6    11    12
 C    -3.45500   0.37920   0.47140    15    16    24    10
 C    -3.12270  -0.87530   0.86260    16    15     3    25
 C    -2.79830   2.49320   0.38890    17    24    20     9
 C     0.43550   3.11790  -0.46040    18    19    23    45
 C    -0.90670   3.13670  -0.51250    19    18    20    13
 C    -1.63480   3.07620   0.64900    20    17    19    41
 C     1.33690   0.33100  -2.43440    21     7    46    22
 C     0.57890   1.54030  -2.29420    22    23    21    12
 C     1.20670   2.47130  -1.43430    23    48    18    22
 C    -3.01760   1.46310   1.19520    24    17    15    34
 C    -2.14320  -1.02220   1.87960    25    26    16    35
 C    -1.57200  -2.22180   1.66460    26    25    39    27
 C    -2.05210  -2.82790   0.54470    27    28     3    26
 C    -0.97920  -3.41610  -0.01050    28    27    29     4
 C     0.09160  -3.31350   0.81440    29    28    31    39
 C     2.24740  -2.34950   0.65230    30    31    50    33
 C     1.24670  -3.11950   0.12270    31    29    30     5
 C     2.69710  -0.47240   1.67890    32    33    49    40
 C     1.90500  -1.54820   1.77970    33    32    38    30
 C    -1.88420   1.33280   2.00560    34    24    35    41
 C    -1.37880   0.07550   2.37140    35    34    25    37
 C     0.93020   1.04260   2.32270    36    40    42    37
 C     0.05480  -0.11490   2.55580    37    35    36    38
 C     0.60070  -1.45940   2.30230    38    39    33    37
 C    -0.25130  -2.47120   1.86710    39    26    29    38
 C     2.28300   0.79930   1.95560    40    32    43    36
 C    -1.01780   2.39630   1.69660    41    42    20    34
 C     0.36140   2.27660   1.79590    42    41    45    36
 C     3.02100   1.57950   1.08830    43    44    40    52
 C     2.35560   2.52080   0.43880    44    43    45    48
 C     1.11780   2.93080   0.76270    45    44    18    42
 C     2.58540   0.09560  -1.80970    46    47    51    21
 C     3.17780   1.08690  -1.03590    47    48    52    46
 C     2.42270   2.21080  -0.87980    48    44    23    47
 C     3.55020  -0.52630   0.61400    49    52    50    32
 C     3.11840  -1.58000  -0.13680    50    49    30    51
 C     2.62480  -1.25610  -1.41390    51     8    50    46
 C     3.68330   0.74650   0.20680    52    49    43    47
