    52
C52-C1-270                                                                      
 C     1.41900  -0.53530  -2.54930     1    36     2     7
 C     2.46560   0.14070  -1.91520     2     1     4     3
 C     3.23500  -0.58220  -0.96200     3    10     2    19
 C     2.18600   1.49090  -1.64450     4     2     5     8
 C     0.95560   2.10840  -1.98380     5    14     4     6
 C    -0.14510   1.37750  -2.51660     6     7     5    13
 C     0.15120   0.03950  -2.83310     7    39     6     1
 C     2.60750   2.04880  -0.40580     8    11     9     4
 C     3.17980   1.26090   0.54500     9     8    10    16
 C     3.66840   0.02490   0.21010    10    15     9     3
 C     1.62520   2.89270  -0.05000    11     8    14    34
 C    -2.42840   0.60040  -1.93300    12    50    38    13
 C    -1.49590   1.67030  -2.02320    13    12    51     6
 C     0.72420   3.06370  -1.04310    14    52    11     5
 C     3.47310  -0.80340   1.22550    15    10    18    17
 C     2.47750   1.07920   1.78780    16    17    35     9
 C     2.68960  -0.22800   2.12760    17    15    31    16
 C     2.92080  -1.92700   0.78880    18    15    19    21
 C     2.82870  -1.90080  -0.57850    19    20    18     3
 C     1.73670  -2.45410  -1.16830    20    36    19    24
 C     1.76650  -2.14870   1.53780    21    18    23    31
 C    -0.60580  -2.43210   1.51310    22    23    40    26
 C     0.63530  -2.74700   0.96930    23    22    21    24
 C     0.64000  -2.96890  -0.42870    24    42    23    20
 C    -1.96920  -0.90300   2.26700    25    26    44    32
 C    -0.71250  -1.34790   2.42840    26    25    30    22
 C    -1.42830   2.38960   1.28450    27    33    28    47
 C    -1.25780   1.35180   2.23890    28    32    27    29
 C     0.11730   0.93570   2.55910    29    35    28    30
 C     0.36630  -0.50810   2.71080    30    31    26    29
 C     1.62310  -1.02490   2.41460    31    17    30    21
 C    -2.29900   0.41690   2.17860    32    25    49    28
 C    -0.35050   3.02000   0.79050    33    27    52    34
 C     0.93500   2.75990   1.14520    34    33    11    35
 C     1.24060   1.72450   2.03040    35    34    16    29
 C     1.14460  -1.83140  -2.20530    36    37    20     1
 C    -0.15520  -2.06450  -2.23800    37    36    39    42
 C    -2.06080  -0.72440  -2.21080    38    39    12    43
 C    -0.81280  -0.96450  -2.67970    39    38    37     7
 C    -1.83020  -2.49040   0.79800    40    44    41    22
 C    -1.82000  -2.56610  -0.61830    41    42    40    43
 C    -0.56050  -2.80640  -1.15950    42    37    41    24
 C    -2.66420  -1.58990  -1.26020    43    46    38    41
 C    -2.70790  -1.63570   1.41230    44    45    25    40
 C    -3.58280  -0.83830   0.79030    45    44    46    49
 C    -3.53140  -0.78760  -0.55420    46    45    50    43
 C    -2.34750   2.29570   0.19260    47    48    51    27
 C    -3.26960   1.30200   0.19090    48    47    50    49
 C    -3.33760   0.44030   1.25100    49    48    45    32
 C    -3.35530   0.50930  -0.92000    50    46    48    12
 C    -1.60150   2.63350  -0.96190    51    52    47    13
 C    -0.48430   3.23640  -0.54160    52    14    51    33
