    52
C52-C1-119                                                                      
 C     0.76610  -2.01790  -1.68430     1    13     2    32
 C     0.01750  -1.00010  -2.27300     2     3     1    10
 C    -1.35290  -1.12470  -2.09890     3     2     4    33
 C    -2.23180  -0.04400  -2.12540     4    15     3     5
 C    -1.67740   1.23790  -2.01190     5     4    11     6
 C    -2.39000   1.98000  -1.01680     6    16    19     5
 C     0.33930   2.38830  -1.39920     7     8    18    11
 C     1.64720   2.42420  -1.10870     8     7    45    12
 C     2.09610   0.39190  -2.10270     9    12    14    10
 C     0.65920   0.28870  -2.41730    10     2    11     9
 C    -0.26530   1.39280  -2.17460    11     7     5    10
 C     2.62010   1.56750  -1.50680    12     8    52     9
 C     2.08630  -1.88630  -1.45970    13     1    41    14
 C     2.81840  -0.76060  -1.68690    14    13    50     9
 C    -3.38860  -0.43020  -1.47500    15    31    17     4
 C    -3.50620   1.50240  -0.37080    16    17    24     6
 C    -4.14850   0.34350  -0.65110    17    16    15    21
 C    -0.29650   2.81910  -0.23530    18    19    25     7
 C    -1.57980   2.54790  -0.04220    19    18     6    23
 C    -3.60590   0.32100   1.44810    20    24    21    22
 C    -4.29610  -0.38490   0.50190    21    30    20    17
 C    -2.55900  -0.41650   1.95150    22    20    28    35
 C    -2.01640   2.09770   1.20000    23    24    19    27
 C    -3.22320   1.52710   0.96600    24    20    23    16
 C     0.65200   2.81050   0.77480    25    45    18    26
 C     0.36400   1.93680   1.86490    26    25    27    48
 C    -1.00570   1.52540   2.02040    27    23    26    28
 C    -1.31050   0.14430   2.33280    28    29    22    27
 C    -0.20730  -0.70340   2.36150    29    49    28    36
 C    -3.65300  -1.57370   0.36420    30    21    31    35
 C    -3.16190  -1.63840  -0.90330    31    33    15    30
 C     0.25480  -2.83110  -0.64690    32    34    39     1
 C    -1.93500  -2.09360  -1.23880    33    31    34     3
 C    -1.08370  -2.69840  -0.31530    34    32    33    37
 C    -2.61180  -1.67350   1.29060    35    30    37    22
 C    -0.25120  -1.97440   1.75300    36    38    37    29
 C    -1.40130  -2.33710   1.04660    37    36    35    34
 C     1.04480  -2.30130   1.41760    38    36    42    39
 C     1.34300  -2.94550   0.21780    39    41    38    32
 C     3.49150  -1.79280   0.12960    40    41    44    50
 C     2.51680  -2.56950  -0.37010    41    40    13    39
 C     1.92650  -1.32830   1.87890    42    44    38    49
 C     3.54540   0.18860   1.12580    43    44    51    47
 C     3.14990  -1.09780   1.27770    44    43    42    40
 C     1.86640   2.79630   0.17400    45    46     8    25
 C     2.96990   2.17320   0.54030    46    45    47    52
 C     2.75950   1.24980   1.54110    47    46    43    48
 C     1.48210   1.06460   2.15420    48    49    47    26
 C     1.11880  -0.28380   2.35390    49    29    42    48
 C     3.86650  -0.77410  -0.74100    50    51    40    14
 C     4.13080   0.39750  -0.11080    51    52    50    43
 C     3.62460   1.56800  -0.51670    52    51    46    12
