    52
C52-Cs-120                                                                      
 C    -0.88350   1.08430   2.39940     1     2     4    37
 C    -1.20140   2.19170   1.66340     2     3     1    15
 C    -2.36930   2.19550   0.98380     3     7     2    36
 C     0.44820   0.68910   2.51100     4     1    42     5
 C     1.54600   1.39830   1.98250     5     4     6    14
 C     2.76200   0.71110   1.77440     6    16     5    41
 C    -2.09760   2.63620  -0.26020     7     8     9     3
 C    -2.85910   1.94020  -1.08800     8     7    20    17
 C    -0.77060   2.82320  -0.38930     9     7    15    10
 C    -0.08450   2.22260  -1.47450    10    11     9    19
 C     1.27580   2.10680  -1.32580    11    10    28    13
 C     3.14590   1.78490  -0.15740    12    13    16    49
 C     1.94360   2.39660  -0.11110    13    12    14    11
 C     1.15980   2.41840   1.04190    14    15    13     5
 C    -0.17220   2.72150   0.88200    15    14     2     9
 C     3.72380   1.06430   0.83740    16    12    52     6
 C    -3.75330   1.17700  -0.36310    17    18     8    36
 C    -3.85560   0.00880  -1.02580    18    17    22    21
 C    -0.80980   1.22920  -2.24070    19    20    10    30
 C    -2.21110   1.17140  -2.03250    20    21     8    19
 C    -2.88630  -0.00530  -2.01070    21    32    20    18
 C    -3.74570  -1.15470  -0.35350    22    18    23    34
 C    -2.84630  -1.90750  -1.07790    23    24    32    22
 C    -2.08910  -2.57690  -0.22610    24    23    38    25
 C    -0.76380  -2.77570  -0.37890    25    24    44    27
 C     1.28320  -2.10920  -1.33750    26    27    33    48
 C    -0.07980  -2.20980  -1.48230    27    26    25    31
 C     2.06420   1.14720  -1.94300    28    49    11    29
 C     1.36840  -0.00860  -2.38460    29    28    33    30
 C    -0.06130  -0.00480  -2.51200    30    29    31    19
 C    -0.81680  -1.23720  -2.26290    31    32    27    30
 C    -2.21060  -1.18010  -2.05770    32    21    23    31
 C     2.08290  -1.16260  -1.96890    33    51    26    29
 C    -3.32860  -1.21380   0.98660    34    38    22    35
 C    -3.01220  -0.00050   1.65940    35    36    34    37
 C    -3.32970   1.20220   0.97270    36     3    17    35
 C    -1.75550  -0.01250   2.36280    37     1    40    35
 C    -2.37590  -2.20870   1.03720    38    24    39    34
 C    -1.19390  -2.22060   1.69890    39    38    40    44
 C    -0.87650  -1.10610   2.42800    40    39    42    37
 C     2.75980  -0.70660   1.77120    41    46    43     6
 C     0.45210  -0.70780   2.53100    42    40     4    43
 C     1.55080  -1.40050   1.98930    43    42    41    45
 C    -0.16590  -2.71630   0.89420    44    45    39    25
 C     1.17350  -2.41360   1.03370    45    44    48    43
 C     3.70460  -1.07330   0.81910    46    47    52    41
 C     3.15680  -1.79060  -0.18960    47    48    46    51
 C     1.95630  -2.39350  -0.12330    48    47    45    26
 C     3.29730   1.08600  -1.32020    49    50    12    28
 C     4.07260  -0.00330  -1.07610    50    49    51    52
 C     3.32400  -1.10390  -1.35100    51    50    47    33
 C     4.35260   0.00070   0.26860    52    16    46    50
