    52
C52-C2-380                                                                      
 C    -2.73880  -1.25860   1.22820     1     2     3    32
 C    -2.18260  -2.44680   0.87270     2    27     1     7
 C    -2.07700  -0.43540   2.12580     3    51     1     8
 C    -0.34890  -3.42350   0.19600     4     5    29     7
 C     0.94920  -3.19510  -0.10550     5     4     6    19
 C     1.76760  -2.63940   0.83210     6    11     5    10
 C    -0.94470  -2.86000   1.32060     7     2     4     9
 C    -0.78470  -0.81240   2.55020     8     3     9    14
 C    -0.18300  -2.03260   2.16100     9    10     7     8
 C     1.20050  -1.98000   1.95690    10     9    16     6
 C     2.80650  -1.89430   0.42120    11     6    12    17
 C     3.01030  -0.88660   1.30450    12    13    11    16
 C     3.48830   0.15920   0.64440    13    12    48    22
 C    -0.03710   0.38280   2.68660    14    44     8    15
 C     1.36310   0.43190   2.45210    15    16    14    47
 C     1.96550  -0.81870   2.17610    16    12    10    15
 C     2.97890  -1.41610  -0.87020    17    22    11    18
 C     1.89790  -1.62070  -1.76950    18    19    17    25
 C     0.95100  -2.61670  -1.41440    19    20    18     5
 C    -0.39080  -2.59840  -1.79780    20    29    21    19
 C    -0.88690  -1.44510  -2.38550    21    20    26    30
 C     3.51440  -0.16690  -0.68500    22    23    13    17
 C     3.03450   0.88970  -1.32080    23    22    43    24
 C     1.96890   0.81390  -2.16710    24    23    36    25
 C     1.36350  -0.43920  -2.44760    25    26    24    18
 C    -0.03230  -0.38310  -2.68110    26    21    38    25
 C    -2.33300  -2.66590  -0.45870    27    29     2    28
 C    -2.87160  -1.53470  -0.98620    28    27    32    30
 C    -1.17300  -3.21190  -0.85980    29    27     4    20
 C    -2.14250  -0.92660  -2.02170    30    31    28    21
 C    -2.07610   0.44320  -2.12830    31    30    34    38
 C    -3.26910  -0.68340   0.05390    32    33    28     1
 C    -3.26560   0.69310  -0.05670    33    32    50    34
 C    -2.73830   1.26790  -1.23250    34    35    31    33
 C    -2.18830   2.45210  -0.88030    35    34    49    39
 C     1.19810   1.97540  -1.93520    36    37    24    40
 C    -0.18720   2.02730  -2.15230    37    36    39    38
 C    -0.77980   0.80840  -2.55230    38    31    26    37
 C    -0.94270   2.86440  -1.31330    39    35    42    37
 C     1.77190   2.64670  -0.82060    40    43    41    36
 C     0.93340   3.19450   0.10640    41    42    40    46
 C    -0.36360   3.42720  -0.18850    42    52    41    39
 C     2.81360   1.89430  -0.43020    43    40    23    48
 C    -0.89430   1.44440   2.39130    44    45    14    51
 C    -0.38900   2.59040   1.79830    45    52    44    46
 C     0.95420   2.61330   1.41470    46    45    47    41
 C     1.89660   1.61110   1.76960    47    48    46    15
 C     2.96290   1.40440   0.85870    48    13    43    47
 C    -2.34640   2.66930   0.45470    49    52    50    35
 C    -2.88420   1.54280   0.99770    50    49    51    33
 C    -2.15920   0.93600   2.02910    51     3    50    44
 C    -1.18200   3.21140   0.86170    52    49    42    45
