    52
C52-C1-271                                                                      
 C    -1.89510  -1.18000   2.13800     1     2     4    32
 C    -2.41260   0.07120   2.18940     2     1     3    12
 C    -3.34400   0.45430   1.25140     3     7     2    31
 C    -0.57190  -1.41760   2.50790     4    40     1     5
 C     0.35050  -0.37790   2.76850     5     6     4    11
 C     1.67850  -0.69150   2.40030     6    13     5    44
 C    -3.10840   1.73340   0.98020     7    14     3     8
 C    -2.01380   2.14240   1.61750     8     7    24    12
 C     2.11950   1.57330   1.78090     9    13    25    10
 C     0.76680   1.94800   1.96510    10     9    11    23
 C    -0.12800   0.98250   2.61150    11    12     5    10
 C    -1.51170   1.14550   2.41320    12     8    11     2
 C     2.53080   0.28470   2.01700    13     6    52     9
 C    -3.00470   1.93160  -0.31630    14     7    15    17
 C    -3.28440   0.74180  -0.94270    15    16    14    31
 C    -2.51630   0.41030  -2.02430    16    26    15    20
 C    -1.80930   2.61020  -0.52940    17    14    19    24
 C     0.37500   2.49060  -1.49600    18    19    36    22
 C    -0.99700   2.28930  -1.62460    19    18    17    20
 C    -1.38550   1.17830  -2.40350    20    27    19    16
 C     2.24380   2.48290  -0.28780    21    25    47    22
 C     0.95340   2.88890  -0.25950    22    21    23    18
 C     0.17840   2.79740   0.91720    23    24    22    10
 C    -1.18940   2.79610   0.74470    24     8    23    17
 C     2.91480   1.93090   0.71710    25    21    49     9
 C    -2.15460  -0.88000  -2.21090    26    28    16    29
 C    -0.40710   0.30020  -2.91670    27    28    37    20
 C    -0.94000  -0.94620  -2.77400    28    26    39    27
 C    -2.30700  -1.88590  -1.28660    29    26    30    33
 C    -2.93440  -1.55550  -0.05700    30    32    31    29
 C    -3.49320  -0.25760   0.06440    31     3    30    15
 C    -2.21570  -2.03800   1.05820    32    35    30     1
 C    -1.09700  -2.63000  -1.39620    33    34    39    29
 C    -0.49850  -3.14000  -0.26510    34    35    33    42
 C    -1.10380  -2.81490   0.91380    35    40    32    34
 C     1.34790   1.68120  -2.13030    36    47    37    18
 C     0.96520   0.49140  -2.75120    37    27    36    45
 C     1.10540  -1.87750  -2.09790    38    39    41    45
 C    -0.25150  -2.01450  -2.32330    39    28    38    33
 C    -0.14960  -2.51280   1.80410    40    35    43     4
 C     1.70990  -2.44230  -0.97750    41    38    42    50
 C     0.88440  -3.05470  -0.03310    42    41    43    34
 C     1.09380  -2.69970   1.30380    43    40    44    42
 C     2.08890  -1.83410   1.65620    44    43    51     6
 C     1.74770  -0.65070  -2.35880    45    38    48    37
 C     3.31310   0.69290  -1.05330    46    47    49    48
 C     2.47990   1.73220  -1.38500    47    21    36    46
 C     2.85030  -0.55030  -1.48710    48    46    45    50
 C     3.67560   0.87550   0.27160    49    52    25    46
 C     2.78920  -1.64390  -0.59170    50    41    51    48
 C     3.08590  -1.40740   0.77030    51    52    44    50
 C     3.47410  -0.15060   1.12100    52    49    51    13
