    52
C52-C1-326                                                                      
 C    -1.05820  -1.46960  -2.36010     1     2     4    30
 C    -1.85880  -0.35740  -2.48400     2     3     1     5
 C    -2.97360  -0.24640  -1.72450     3     2     8    29
 C     0.31160  -1.37490  -2.56130     4    38     1     7
 C    -1.26830   0.90800  -2.56390     5     6    13     2
 C     0.09620   0.98940  -2.67760     6     5     7    17
 C     0.90990  -0.13080  -2.78600     7    52     6     4
 C    -3.12970   1.06320  -1.37890     8     9     3    13
 C    -3.63830   1.05490  -0.14150     9     8    10    21
 C    -2.95080   1.76880   0.76200    10     9    24    12
 C    -1.29960   2.60630  -0.85070    11    13    18    12
 C    -1.83200   2.52100   0.47480    12    10    15    11
 C    -2.01140   1.77830  -1.76640    13     8     5    11
 C     0.36180   2.49980   1.42600    14    15    34    16
 C    -0.96190   2.31590   1.54790    15    14    12    23
 C     0.90570   2.84650   0.17740    16    19    14    18
 C     0.81560   1.95770  -1.98180    17     6    47    18
 C     0.11960   2.72570  -0.98930    18    16    11    17
 C     2.20720   2.44360   0.23280    19    42    16    49
 C    -3.15290  -0.28020   1.57300    20    22    24    21
 C    -3.73030  -0.23760   0.31040    21     9    20    29
 C    -2.28770  -1.28320   1.88860    22    20    27    25
 C    -1.45290   1.27500   2.34080    23    24    15    26
 C    -2.68720   0.98820   1.83280    24    10    23    20
 C    -1.06960  -1.01480   2.57880    25    36    26    22
 C    -0.54900   0.28810   2.80540    26    23    25    35
 C    -1.99740  -2.28480   0.93360    27    31    22    28
 C    -2.40760  -2.16170  -0.41810    28    29    27    30
 C    -3.29880  -1.11090  -0.68660    29     3    21    28
 C    -1.30930  -2.39030  -1.32330    30     1    33    28
 C    -0.73350  -2.69330   1.23260    31    36    32    27
 C     0.24650  -3.04890   0.37450    32    31    33    39
 C    -0.02980  -2.85920  -0.96230    33    32    38    30
 C     1.29760   1.71370   2.10570    34    42    14    35
 C     0.88650   0.47620   2.69380    35    34    26    45
 C    -0.18860  -1.96880   2.22200    36    31    25    46
 C     2.22950  -1.98060  -1.24180    37    38    41    51
 C     0.96440  -2.27610  -1.74180    38     4    33    37
 C     1.45280  -2.60990   0.92950    39    41    32    46
 C     3.28570  -1.17130   0.51990    40    41    50    44
 C     2.47490  -2.18000   0.12360    41    40    39    37
 C     2.45590   1.82360   1.41630    42    43    34    19
 C     3.34280   0.85900   1.20070    43    42    44    48
 C     2.98620  -0.39160   1.64130    44    43    40    45
 C     1.79860  -0.64100   2.38780    45    46    44    35
 C     1.15090  -1.85210   2.08840    46    36    45    39
 C     2.14490   1.48580  -1.83530    47    49    52    17
 C     3.72540   0.87240  -0.12150    48    50    43    49
 C     2.93490   1.82310  -0.74400    49    19    48    47
 C     3.67630  -0.40640  -0.54490    50    48    40    51
 C     2.91970  -0.81160  -1.61990    51    50    52    37
 C     2.17440   0.15240  -2.31130    52     7    51    47
