    52
C52-C1-153                                                                      
 C    -2.05600   2.45510  -0.95380     1     2     5    37
 C    -3.13010   1.75480  -0.47100     2    27     1    14
 C     0.72150   2.81470  -0.94010     3     6    38     4
 C     0.08360   2.10630  -1.96370     4     5     7     3
 C    -1.27260   1.87600  -1.92330     5     1     4    12
 C     1.99750   2.44870  -0.57210     6     3     9    39
 C     0.70470   0.97980  -2.45400     7     8     4    18
 C     1.99680   0.69890  -2.12670     8     7    24     9
 C     2.74770   1.51410  -1.27690     9    10     6     8
 C     3.65200   0.73340  -0.63680    10     9    11    47
 C     3.83790   0.71800   0.72050    11    52    10    41
 C    -1.51170   0.55370  -2.32550    12     5    13    18
 C    -2.56400  -0.21380  -1.79120    13    15    12    14
 C    -3.35310   0.43210  -0.80310    14     2    13    19
 C    -2.31040  -1.57350  -1.64090    15    13    21    17
 C     0.05630  -1.36450  -2.34310    16    17    18    25
 C    -1.02720  -2.13330  -1.90650    17    26    16    15
 C    -0.24960  -0.00950  -2.61440    18     7    12    16
 C    -3.60740  -0.21360   0.43740    19    22    20    14
 C    -3.29910   0.72410   1.39420    20    27    19    33
 C    -2.83320  -2.24500  -0.53430    21    23    22    15
 C    -3.18050  -1.49190   0.56650    22    19    21    31
 C    -1.88100  -3.09950  -0.19070    23    46    21    26
 C     2.36950  -0.62360  -1.88810    24    47     8    25
 C     1.39750  -1.65830  -1.86490    25    24    16    50
 C    -0.82080  -3.13710  -0.99150    26    23    51    17
 C    -3.19450   1.93620   0.85430    27    29    20     2
 C    -1.38590   1.71810   2.05840    28    29    30    33
 C    -2.09840   2.58470   1.23010    29    27    37    28
 C     0.01140   1.69510   2.11910    30    28    40    35
 C    -2.15400  -1.75010   1.52380    31    46    32    22
 C    -1.50000  -0.70700   2.22480    32    33    31    34
 C    -2.14090   0.52960   2.15300    33    32    20    28
 C    -0.06080  -0.77420   2.36700    34    32    42    35
 C     0.70880   0.47150   2.40870    35    36    30    34
 C     2.09160   0.41730   2.11780    36    44    41    35
 C    -1.41190   3.05350   0.14610    37    38    29     1
 C    -0.04910   3.10690   0.16940    38    37     3    40
 C     2.01020   2.34170   0.83160    39    41    40     6
 C     0.70820   2.58590   1.23260    40    39    38    30
 C     2.82240   1.39460   1.40440    41    39    11    36
 C     0.65290  -1.91210   1.78860    42    43    45    34
 C     1.98680  -1.80970   1.46060    43    44    42    49
 C     2.75100  -0.74900   1.81750    44    52    43    36
 C    -0.07460  -2.80680   1.02030    45    46    42    51
 C    -1.42210  -2.77220   1.00250    46    23    45    31
 C     3.44070  -0.56990  -1.03500    47    48    24    10
 C     3.59170  -1.42730   0.00110    48    52    47    49
 C     2.52340  -2.26870   0.20940    49    48    50    43
 C     1.54010  -2.59750  -0.74700    50    51    49    25
 C     0.36100  -3.14440  -0.29870    51    26    50    45
 C     3.82180  -0.58920   1.03720    52    44    11    48
