    52
C52-C1-45                                                                       
 C    -0.23240  -2.33840   1.58240     1    30     2     4
 C     0.93660  -1.61280   1.80010     2     1     7    28
 C     3.11230   0.14990   1.68740     3    13     8    29
 C    -1.53210  -1.82990   1.73820     4     5     1    37
 C    -1.70950  -0.47340   1.99010     5     4    11     6
 C    -0.54530   0.34650   2.16690     6     7     5    10
 C     0.76150  -0.23600   2.19740     7     8     6     2
 C     1.86400   0.58250   2.04010     8     3     7    17
 C    -1.87830   2.15800   1.21570     9    12    10    47
 C    -0.64660   1.71890   1.68420    10     9    16     6
 C    -2.90480   0.06520   1.49000    11    12     5    35
 C    -3.01010   1.38530   1.21340    12    11    51     9
 C     3.84930   1.14100   1.11440    13    22    18     3
 C     3.67970   1.18220  -0.93430    14    15    22    20
 C     3.10850   0.20920  -1.64610    15    14    50    26
 C     0.53030   2.33030   1.16440    16    17    10    21
 C     1.76500   1.87590   1.52460    17    16    18     8
 C     2.92850   2.09300   0.84010    18    13    17    20
 C     1.42980   2.29010  -1.03390    19    20    21    49
 C     2.74040   2.12450  -0.52260    20    18    14    19
 C     0.39120   2.82060  -0.20370    21    48    19    16
 C     4.43800   0.57640   0.04780    22    13    14    23
 C     4.12450  -0.77610   0.03080    23    26    22    29
 C     1.79530  -2.53050  -0.21860    24    25    27    28
 C     0.53370  -3.04950  -0.37870    25    30    24    32
 C     3.41290  -0.99660  -1.11580    26    15    27    23
 C     2.31990  -1.77960  -1.27840    27    26    24    40
 C     2.14540  -1.93160   1.05420    28    29    24     2
 C     3.26200  -1.07640   1.08980    29     3    23    28
 C    -0.34210  -3.33730   0.63630    30    31    25     1
 C    -1.61340  -3.32180   0.23560    31    33    30    37
 C    -0.32830  -2.51850  -1.37740    32    33    44    25
 C    -1.60200  -2.71430  -0.94990    33    31    46    32
 C    -4.07410   0.46050  -0.27420    34    51    35    39
 C    -3.77580  -0.58710   0.58140    35    36    34    11
 C    -3.28660  -1.78650   0.16490    36    35    37    46
 C    -2.44780  -2.55250   0.95380    37    31    36     4
 C    -2.62650   1.77200  -1.36120    38    41    52    39
 C    -3.13530   0.49810  -1.33980    39    38    45    34
 C     1.36760  -1.06940  -2.04650    40    44    50    27
 C    -1.30050   1.97980  -1.60080    41    38    42    48
 C    -0.42930   1.02900  -2.11310    42    41    49    43
 C    -0.96140  -0.32640  -2.19770    43    44    45    42
 C     0.02470  -1.36410  -2.06500    44    40    32    43
 C    -2.31760  -0.56460  -1.72500    45    39    46    43
 C    -2.56990  -1.77250  -1.06130    46    33    45    36
 C    -2.03250   3.02810   0.13470    47    48    52     9
 C    -0.90820   2.92120  -0.63950    48    47    21    41
 C     0.96100   1.27970  -1.97890    49    50    42    19
 C     1.85050   0.22340  -2.13810    50    15    40    49
 C    -3.92220   1.71730   0.25870    51    52    12    34
 C    -3.20160   2.59040  -0.43320    52    51    38    47
