    52
C52-C1-291                                                                      
 C     2.46120   2.46120  -0.68580     1    33     2     6
 C     3.13160   1.28780  -0.54320     2     3     1    16
 C     2.90120   0.28770  -1.42060     3     7     2     4
 C     1.74790   0.29160  -2.24240     4    13     5     3
 C     0.87160   1.38500  -2.23780     5     4     6    11
 C     1.29610   2.49750  -1.45420     6     1    38     5
 C     3.07910  -0.97180  -1.01150     7     3     8    14
 C     2.22700  -1.78620  -1.66370     8     9     7    13
 C     1.92470  -2.81560  -0.89590     9     8    52    20
 C    -1.41180   2.02860  -1.76050    10    40    37    11
 C    -0.52300   1.09970  -2.40060    11     5    10    48
 C    -0.06500  -1.38400  -2.34530    12    13    48    51
 C     1.30230  -1.03200  -2.33940    13     8     4    12
 C     3.16160  -1.38850   0.31220    14    20     7    15
 C     2.88080  -0.36640   1.26370    15    16    14    17
 C     3.07540   0.96410   0.84500    16    26    15     2
 C     1.74400  -0.60280   2.16540    17    22    18    15
 C     0.88410   0.52960   2.47510    18    25    19    17
 C    -0.51700   0.29590   2.55060    19    24    28    18
 C     2.50920  -2.58960   0.32510    20    21    14     9
 C     1.54970  -2.83600   1.20470    21    20    46    22
 C     1.11140  -1.87780   2.08230    22    21    23    17
 C    -0.27380  -2.02770   2.13990    23    24    22    43
 C    -1.08710  -0.95630   2.39120    24    23    32    19
 C     1.25570   1.81230   2.05860    25    26    18    30
 C     2.41470   2.04210   1.36470    26    33    16    25
 C    -2.61890   0.51870   1.67620    27    31    32    28
 C    -1.47420   1.23330   2.09960    28    29    19    27
 C    -1.03830   2.44310   1.51760    29    30    28    36
 C     0.31100   2.76060   1.56720    30    29    34    25
 C    -3.39560   0.96040   0.60560    31    35    42    27
 C    -2.35200  -0.84950   1.83980    32    24    27    45
 C     2.19760   3.02980   0.49010    33    34     1    26
 C     0.94590   3.45260   0.53340    34    33    38    30
 C    -2.80420   2.01890  -0.04340    35    36    40    31
 C    -1.72610   2.75710   0.31840    36    35    37    29
 C    -0.92790   2.95780  -0.82920    37    38    10    36
 C     0.37550   3.24610  -0.70620    38    37    34     6
 C    -3.14230   0.42990  -1.48470    39    40    42    47
 C    -2.62680   1.63000  -1.33430    40    39    10    35
 C    -3.41430  -1.27890  -0.18690    41    42    45    49
 C    -3.75650   0.01330  -0.33540    42    41    39    31
 C    -0.67370  -2.96870   1.18120    43    46    44    23
 C    -1.82530  -2.72750   0.47840    44    43    45    50
 C    -2.77930  -1.80500   0.89700    45    41    44    32
 C     0.45630  -3.35000   0.56220    46    43    21    52
 C    -2.33060  -0.53780  -2.01360    47    49    39    48
 C    -1.01310  -0.29200  -2.48310    48    47    12    11
 C    -2.59960  -1.63370  -1.23950    49    50    47    41
 C    -1.66470  -2.54950  -0.92530    50    49    51    44
 C    -0.40410  -2.58770  -1.54820    51    50    52    12
 C     0.62770  -3.21690  -0.81100    52     9    46    51
