    52
C52-Cs-410                                                                      
 C    -1.40800   3.04760  -0.93870     1     3    13     2
 C    -0.87810   2.29830  -1.94370     2     1     4     6
 C    -2.42990   2.58530  -0.19540     3     1    16    38
 C    -1.50140   1.11900  -2.27920     4     2    10    36
 C     2.57400   1.20030  -1.53320     5    52    15     7
 C     0.50800   2.34840  -1.83250     6     2     7    12
 C     1.33990   1.25590  -2.20130     7     5     6     8
 C     0.69320   0.00230  -2.56900     8    10     7     9
 C     1.33920  -1.24780  -2.18030     9    51    11     8
 C    -0.73690  -0.00470  -2.60030    10    41     4     8
 C     0.50640  -2.34360  -1.81000    11    42     9    45
 C     0.80120   3.14460  -0.68550    12    13    14     6
 C    -0.39960   3.42800  -0.12080    13     1    12    19
 C     1.85740   2.77110   0.08430    14    15    12    20
 C     2.81510   1.96600  -0.39160    15    14    48     5
 C    -1.99870   2.56570   1.09150    16    17     3    19
 C    -2.41520   1.40260   1.64610    17    16    18    25
 C    -1.49920   0.69400   2.41140    18    26    17    22
 C    -0.70600   3.05050   1.17860    19    16    13    21
 C     1.57640   2.29500   1.39760    20    21    32    14
 C     0.26370   2.33890   1.90280    21    19    20    22
 C    -0.17040   1.14180   2.52430    22    18    34    21
 C    -3.16650  -0.67840   0.70180    23    25    24    39
 C    -2.39500  -1.38550   1.63450    24    27    26    23
 C    -3.17680   0.70390   0.69490    25    23    38    17
 C    -1.48830  -0.68130   2.40810    26    18    24    28
 C    -1.99380  -2.53740   1.05020    27    24    40    31
 C    -0.16930  -1.13360   2.52040    28    26    34    30
 C     1.57740  -2.28620   1.39070    29    30    35    47
 C     0.26110  -2.32470   1.88410    30    29    31    28
 C    -0.70270  -3.02910   1.14080    31    27    44    30
 C     2.46400   1.21410   1.60460    32    48    20    33
 C     1.98840  -0.00160   2.17340    33    34    35    32
 C     0.65820   0.00440   2.61760    34    33    22    28
 C     2.47040  -1.21060   1.59590    35    50    29    33
 C    -2.66980   0.68860  -1.61540    36    37    38     4
 C    -2.66200  -0.68810  -1.61070    37    36    39    41
 C    -3.08890   1.42750  -0.50270    38     3    36    25
 C    -3.09210  -1.42530  -0.49360    39    40    37    23
 C    -2.45670  -2.60300  -0.22510    40    43    27    39
 C    -1.49630  -1.12620  -2.27300    41    42    10    37
 C    -0.88480  -2.30780  -1.91410    42    43    41    11
 C    -1.42240  -3.09480  -0.93150    43    40    44    42
 C    -0.39440  -3.47160  -0.13990    44    43    45    31
 C     0.80940  -3.17120  -0.68380    45    44    47    11
 C     2.81860  -1.97820  -0.39570    46    47    50    51
 C     1.86630  -2.78470   0.08500    47    46    45    29
 C     3.36250   1.16470   0.54330    48    49    15    32
 C     3.73360  -0.00100   0.01230    49    50    48    52
 C     3.37010  -1.16380   0.54170    50    49    46    35
 C     2.57660  -1.18160  -1.51960    51    52    46     9
 C     3.17040   0.00650  -1.24590    52    51     5    49
