    52
C52-C1-238                                                                      
 C     0.57800  -3.21300   0.30040     1     2    30     4
 C     1.70650  -2.78230   0.91140     2     1     3    11
 C     2.83050  -2.45010   0.14610     3     7    24     2
 C    -0.69100  -2.91100   0.77540     4     1    33     5
 C    -0.88710  -1.92980   1.79790     5     6    10     4
 C    -2.13300  -1.31480   1.78260     6     5    41    12
 C     3.45530  -1.46070   0.77760     7     3     8    18
 C     2.64880  -1.01370   1.73880     8     7     9    11
 C     2.59880   0.33440   1.71980     9     8    15    17
 C     0.28310  -1.22860   2.22460    10    11     5    14
 C     1.53670  -1.77180   1.87930    11     8    10     2
 C    -2.25480   0.06710   2.01930    12    48     6    13
 C    -1.09140   0.87160   2.17170    13    12    14    51
 C     0.20290   0.23680   2.36190    14    13    15    10
 C     1.40750   1.00350   2.06390    15    16     9    14
 C     1.30210   2.28790   1.51480    16    52    15    20
 C     3.45950   0.76200   0.66530    17    19    18     9
 C     3.72970  -0.40830  -0.00430    18     7    17    23
 C     3.06440   1.87320   0.02390    19    17    20    21
 C     2.23260   2.79840   0.58600    20    29    19    16
 C     2.46390   1.63660  -1.24850    21    26    22    19
 C     2.28940   0.36110  -1.80490    22    21    23    27
 C     3.04590  -0.66850  -1.19730    23    24    18    22
 C     2.57030  -1.97660  -1.13680    24    25     3    23
 C     1.37190  -2.26950  -1.70080    25    24    30    28
 C     1.49980   2.58120  -1.34340    26    21    29    34
 C     0.97430   0.05890  -2.37440    27    28    35    22
 C     0.56950  -1.28900  -2.31930    28    38    27    25
 C     1.47300   3.43710  -0.29120    29    47    20    26
 C     0.48170  -3.07850  -1.06500    30    31    25     1
 C    -0.76020  -2.78100  -1.38650    31    30    33    38
 C    -2.71980  -2.15540  -0.26680    32    33    41    39
 C    -1.58770  -2.86720  -0.31570    33    32    31     4
 C     0.24880   2.29110  -1.78380    34    26    44    35
 C    -0.10690   1.03650  -2.32640    35    34    36    27
 C    -1.49610   0.64270  -2.17070    36    46    37    35
 C    -1.84260  -0.75740  -2.08170    37    38    39    36
 C    -0.78160  -1.65110  -2.17490    38    31    37    28
 C    -2.94200  -1.14030  -1.24110    39    43    32    37
 C    -3.91080  -0.55320   0.67740    40    41    43    48
 C    -3.18330  -1.63370   0.91460    41    40    32     6
 C    -3.37080   1.05180  -0.66330    42    43    46    49
 C    -3.74750  -0.22440  -0.62440    43    42    40    39
 C    -0.57180   3.04250  -0.93730    44    45    47    34
 C    -1.79020   2.57100  -0.68410    45    44    46    50
 C    -2.33040   1.51930  -1.40380    46    42    45    36
 C     0.20550   3.56930   0.06540    47    29    44    52
 C    -3.42790   0.49370   1.39340    48    49    40    12
 C    -3.27470   1.57170   0.60240    49    50    48    42
 C    -2.23030   2.41240   0.65060    50    49    45    51
 C    -1.14360   2.19010   1.55000    51    52    50    13
 C     0.04300   2.83120   1.23580    52    51    47    16
