    52
C52-C1-231                                                                      
 C     2.89550   1.22480   1.23170     1     2     3    37
 C     2.09180   2.28340   1.43560     2    39     1    17
 C     2.43150   0.10080   1.83470     3     1     4    10
 C     2.68220  -1.16330   1.31700     4     3     8     5
 C     3.28160  -1.19450   0.00640     5     6    35     4
 C     2.76240  -2.12080  -0.85580     6     7    20     5
 C     1.93540  -3.11650  -0.51770     7     6     9    31
 C     1.69340  -2.12780   1.59080     8     9     4    12
 C     1.42670  -3.17720   0.71850     9     7    29     8
 C     1.17230   0.47780   2.38370    10    11    17     3
 C     0.12030  -0.42590   2.50930    11    10    12    15
 C     0.44330  -1.76110   2.15380    12    48    11     8
 C    -2.61930   1.65080   1.10890    13    49    52    14
 C    -1.46090   1.43640   1.92640    14    19    13    15
 C    -1.23530   0.04250   2.35240    15    16    11    14
 C    -2.18810  -0.92690   1.90560    16    50    47    15
 C     0.95100   1.82740   2.06890    17     2    10    19
 C    -0.32590   3.20230   0.60740    18    38    51    19
 C    -0.33710   2.29930   1.72970    19    17    14    18
 C     2.16550  -1.40410  -1.83170    20    21     6    22
 C     2.49480  -0.10980  -1.77150    21    20    25    35
 C     0.91860  -1.87960  -2.09670    22    20    31    23
 C    -0.14770  -1.00740  -2.35510    23    22    33    24
 C     0.17290   0.42340  -2.44240    24    28    23    25
 C     1.55410   0.86600  -2.15380    25    26    21    24
 C     1.77590   2.12870  -1.57920    26    41    36    25
 C    -2.19480   0.88980  -1.90380    27    28    43    34
 C    -0.90160   1.34370  -2.15160    28    27    40    24
 C     0.09290  -3.34540   0.67490    29     9    48    30
 C    -0.34120  -3.21340  -0.64650    30    31    32    29
 C     0.81300  -2.99950  -1.31400    31    30    22     7
 C    -1.52780  -2.54740  -0.92250    32    30    44    33
 C    -1.46430  -1.42980  -1.89070    33    34    23    32
 C    -2.49850  -0.47680  -1.79490    34    46    27    33
 C     3.38660   0.04530  -0.67020    35    37     5    21
 C     2.73450   2.34690  -0.58310    36    37    39    26
 C     3.37480   1.26170  -0.06120    37    35    36     1
 C     0.87200   3.46310  -0.03310    38    39    41    18
 C     2.08130   3.10530   0.37320    39    38     2    36
 C    -0.56040   2.54310  -1.48880    40    41    51    28
 C     0.70130   2.88610  -1.25520    41    40    26    38
 C    -3.85450   0.66140  -0.47640    42    43    49    46
 C    -3.07190   1.56710  -1.05060    43    42    52    27
 C    -2.42030  -2.32060   0.16610    44    45    47    32
 C    -3.38980  -1.39500   0.10040    45    46    44    50
 C    -3.59640  -0.58210  -0.94610    46    45    42    34
 C    -1.77560  -2.16200   1.42390    47    48    16    44
 C    -0.52670  -2.60090   1.60860    48    47    29    12
 C    -3.55120   0.67830   0.83870    49    50    42    13
 C    -3.28140  -0.56800   1.19380    50    49    16    45
 C    -1.29760   2.95240  -0.35610    51    52    18    40
 C    -2.45880   2.35150  -0.10800    52    51    43    13
