    52
C52-C1-183                                                                      
 C     2.26210  -1.23010   1.77260     1     2     5    29
 C     2.80430  -0.00970   2.02670     2     6     1    13
 C    -0.94290  -2.65210   1.16510     3     4    35     9
 C     0.37470  -2.50170   1.25860     4     3     5    30
 C     0.92070  -1.50050   2.03540     5     4     1    11
 C     3.83140   0.22600   1.22510     6     2    15     8
 C     2.40140   1.93110   1.12930     7     8    19    13
 C     3.56420   1.39510   0.60960     8     6    17     7
 C    -1.91050  -1.85580   1.69260     9     3    48    10
 C    -1.47500  -0.62030   2.24540    10     9    51    11
 C    -0.02690  -0.45650   2.45010    11    12     5    10
 C     0.55310   0.86040   2.36740    12    14    13    11
 C     1.91300   1.02030   2.10750    13     2    12     7
 C    -0.28370   1.86840   1.92490    14    12    52    18
 C     3.98560  -0.76790   0.33630    15     6    16    29
 C     3.95020  -0.18090  -0.89640    16    20    15    17
 C     3.64080   1.17340  -0.72170    17     8    25    16
 C     0.19120   2.75040   0.91570    18    26    19    14
 C     1.43630   2.57780   0.34790    19    18     7    24
 C     3.03570  -0.63330  -1.76790    20    16    21    27
 C     2.24820   0.39240  -2.16590    21    20    41    25
 C    -0.94950   2.64100  -1.07240    22    42    26    23
 C     0.16140   2.09720  -1.69510    23    22    24    40
 C     1.46730   2.30140  -1.09160    24    25    23    19
 C     2.56100   1.53890  -1.49780    25    21    17    24
 C    -0.91710   3.04220   0.23760    26    18    47    22
 C     2.17740  -1.67960  -1.60830    27    20    31    28
 C     2.15870  -2.31600  -0.34540    28    30    27    29
 C     2.98470  -1.71510   0.63350    29    15    28     1
 C     0.92710  -2.81600  -0.00700    30    28    33     4
 C     0.93050  -1.37770  -2.19950    31    32    41    27
 C    -0.28500  -1.96760  -1.89350    32    31    33    38
 C    -0.20940  -2.91000  -0.82980    33    35    30    32
 C    -2.50020  -2.57040  -0.29230    34    35    39    48
 C    -1.30710  -3.05870  -0.07140    35    34    33     3
 C    -2.49180   0.99340  -1.80670    36    42    43    37
 C    -1.42800   0.20830  -2.31260    37    36    40    38
 C    -1.52860  -1.23520  -2.06190    38    39    32    37
 C    -2.67980  -1.66040  -1.30660    39    44    34    38
 C    -0.11670   0.82100  -2.38360    40    41    37    23
 C     0.98950  -0.00470  -2.48140    41    21    40    31
 C    -2.21670   2.17750  -1.19930    42    22    36    45
 C    -3.54690   0.51190  -1.07240    43    44    36    46
 C    -3.58780  -0.77240  -0.80330    44    43    39    49
 C    -2.99260   2.33420  -0.07110    45    46    47    42
 C    -3.74530   1.24660   0.07480    46    45    43    50
 C    -2.06320   2.66530   0.83170    47    45    26    52
 C    -2.99630  -1.97050   0.85210    48    49     9    34
 C    -3.72510  -0.90800   0.55860    49    48    44    50
 C    -3.53120   0.33420   1.12050    50    49    46    51
 C    -2.34390   0.51580   1.94700    51    52    50    10
 C    -1.67100   1.75000   1.79270    52    47    14    51
