    52
C52-D2-2                                                                        
 C    -3.28820  -1.07890  -1.54000     1     2     3    42
 C    -4.40420  -1.28480  -0.80680     2     1    38    11
 C    -2.19300  -1.69850  -1.03140     3     1     6    13
 C     0.15210  -1.86590  -0.58460     4     9     6    14
 C    -0.67330  -0.14290  -2.02040     5    46     6    41
 C    -0.90620  -1.37890  -1.35720     6     3     4     5
 C     3.09560  -0.04840  -1.80150     7    51    45     8
 C     1.77000  -0.53780  -1.81780     8     7    46     9
 C     1.47290  -1.62250  -0.93890     9     4    10     8
 C     2.50960  -1.95720  -0.07380    10    52     9    19
 C    -3.87980  -1.78490   0.34760    11     2    12    13
 C    -4.20560  -0.79010   1.22580    12    11    17    37
 C    -2.55090  -2.16370   0.24170    13    11     3    15
 C    -0.16100  -2.09310   0.81160    14    15    20     4
 C    -1.50800  -1.87680   1.13360    15    14    13    16
 C    -1.79050  -0.68100   1.87290    16    17    21    15
 C    -3.10870  -0.17330   1.82060    17    18    12    16
 C    -3.33410   1.17140   1.62810    18    22    30    17
 C     2.23680  -1.92230   1.29780    19    20    36    10
 C     0.91320  -1.64050   1.60460    20    19    14    35
 C    -0.65580   0.17760   1.96910    21    35    16    29
 C    -4.41770   1.29110   0.83260    22    18    37    24
 C    -2.53860   2.01110  -0.18520    23    24    40    30
 C    -3.86960   1.66260  -0.35380    24    22    39    23
 C    -0.16140   2.01400  -0.74960    25    40    44    26
 C     0.15430   1.92120   0.65820    26    33    29    25
 C     3.80940   1.56230   0.20330    27    34    28    47
 C     2.50210   1.94200   0.07920    28    27    33    43
 C    -0.90970   1.48590   1.45320    29    30    26    21
 C    -2.20880   1.78820   1.15590    30    29    18    23
 C     3.11070   0.06060   1.80070    31    34    36    32
 C     1.79100   0.55730   1.82150    32    31    35    33
 C     1.47930   1.65620   0.97500    33    26    28    32
 C     4.17200   0.64770   1.13760    34    27    31    49
 C     0.66600  -0.28880   1.99340    35    21    32    20
 C     3.39540  -1.30420   1.74940    36    50    19    31
 C    -5.08810   0.12770   0.63840    37    22    38    12
 C    -5.10600  -0.12300  -0.71500    38     2    37    39
 C    -4.26380   0.80120  -1.34300    39    24    42    38
 C    -1.50140   1.78430  -1.09520    40    23    25    41
 C    -1.81850   0.71360  -1.99180    41    42     5    40
 C    -3.14510   0.22990  -1.95070    42     1    39    41
 C     2.22870   1.91680  -1.28750    43    44    45    28
 C     0.90660   1.63280  -1.59040    44    43    25    46
 C     3.38480   1.31480  -1.76410    45    47    43     7
 C     0.64930   0.30750  -2.03050    46     5     8    44
 C     4.50210   1.35760  -0.95880    47    27    48    45
 C     5.15440   0.18630  -0.66680    48    47    51    49
 C     5.15780  -0.20790   0.67630    49    50    34    48
 C     4.49610  -1.38830   0.91690    50    52    49    36
 C     4.15430  -0.66040  -1.14510    51    52     7    48
 C     3.82190  -1.60410  -0.24120    52    51    50    10
