    52
C52-C1-207                                                                      
 C     3.04970  -1.15240   1.16780     1     2    34     6
 C     2.50480  -2.32410   0.73910     2     3     1    19
 C     1.30570  -2.67410   1.26600     3     2     7     4
 C     0.56720  -1.81820   2.12050     4    15     5     3
 C     1.04670  -0.52940   2.44010     5     4     6    12
 C     2.36020  -0.24720   1.95000     6     1    36     5
 C     0.38230  -3.21250   0.43030     7     8     3    17
 C    -0.83810  -2.92970   0.85270     8     7    10    15
 C    -2.78810  -2.02720  -0.00410     9    10    24    16
 C    -1.68350  -2.75910  -0.18580    10     9     8    20
 C     0.54980   1.80660   2.09210    11    50    37    12
 C     0.06550   0.52380   2.52030    12    11     5    13
 C    -1.36240   0.25700   2.35530    13    52    14    12
 C    -1.81350  -1.08560   2.02470    14    15    16    13
 C    -0.80030  -2.03500   1.90140    15     8    14     4
 C    -2.96040  -1.24040   1.16760    16    49     9    14
 C     0.42630  -3.04170  -0.93760    17    18     7    20
 C     1.55610  -2.46410  -1.42570    18    17    19    29
 C     2.68380  -2.30730  -0.63890    19    26    18     2
 C    -0.84140  -2.63320  -1.30610    20    17    10    21
 C    -1.04240  -1.47710  -2.11500    21    22    20    28
 C    -2.27690  -0.84430  -1.92780    22    21    24    39
 C    -3.96570  -0.25700  -0.56200    23    24    43    49
 C    -3.27540  -1.27940  -1.04470    24    23     9    22
 C     2.55380  -0.52470  -1.86190    25    27    26    29
 C     3.35620  -1.18540  -0.95360    26    19    34    25
 C     2.44330   0.83730  -1.79890    27    25    30    32
 C     0.12340  -0.71010  -2.45570    28    29    21    31
 C     1.40870  -1.27760  -2.16180    29    25    18    28
 C     1.21940   1.43690  -2.11200    30    41    27    31
 C     0.02100   0.74120  -2.42370    31    30    28    40
 C     3.09020   1.58250  -0.77560    32    35    33    27
 C     3.54230   0.83210   0.31470    33    34    32    36
 C     3.71860  -0.49800   0.16860    34    33    26     1
 C     2.28080   2.64880  -0.57390    35    38    32    41
 C     2.73890   1.00870   1.48510    36    37     6    33
 C     1.84750   2.04180   1.59830    37    36    38    11
 C     1.74730   2.99620   0.61500    38    42    35    37
 C    -2.38690   0.56160  -1.92250    39    43    22    40
 C    -1.23400   1.37100  -2.03970    40    39    31    46
 C     1.19470   2.59460  -1.39930    41    47    30    35
 C     0.45440   3.31420   0.45450    42    38    50    47
 C    -3.47350   0.87620  -1.11100    43    44    23    39
 C    -3.18470   1.71760  -0.10750    44    45    43    48
 C    -2.10710   2.51430  -0.08680    45    44    51    46
 C    -1.17970   2.55350  -1.16500    46    47    45    40
 C     0.05200   3.08230  -0.85540    47    41    46    42
 C    -3.29210   1.02520   1.06710    48    49    52    44
 C    -3.75730  -0.19460   0.78270    49    48    23    16
 C    -0.28520   2.70860   1.42460    50    51    42    11
 C    -1.56860   2.40010   1.21860    51    50    52    45
 C    -2.17520   1.30070   1.79840    52    48    51    13
