    52
C52-C2-267                                                                      
 C    -3.84210  -0.28510   0.24830     1     5     2    34
 C    -3.47770   0.93000   0.66310     2     1    36    13
 C    -0.09690   3.06710   0.64410     3    44    50     4
 C    -1.36860   2.65790   0.93970     4     3    12    37
 C    -3.26170  -1.19450   1.02440     5     1     6     8
 C    -2.69280  -2.13460   0.20690     6     7     5    25
 C    -1.55240  -2.73010   0.63230     7    15     6    11
 C    -2.48890  -0.56270   1.99350     8     5    10    13
 C    -0.20760  -0.19840   2.68500     9    10    14    19
 C    -1.24700  -1.10210   2.37890    10     8     9    11
 C    -0.81320  -2.29000   1.75290    11    21    10     7
 C    -1.58240   1.69780   1.95850    12    13     4    14
 C    -2.65150   0.82940   1.77960    13    12     2     8
 C    -0.36850   1.19100   2.49730    14    51     9    12
 C    -0.60050  -3.06370  -0.26010    15    16     7    23
 C     0.61320  -3.08230   0.26300    16    15    18    21
 C     2.68610  -2.13600  -0.21440    17    18    31    22
 C     1.54980  -2.74160  -0.64110    18    16    17    27
 C     1.16550  -0.49700   2.50900    19    46     9    20
 C     1.59530  -1.72400   1.93070    20    21    22    19
 C     0.55090  -2.55460   1.53700    21    16    20    11
 C     2.75960  -1.62970   1.11950    22    48    20    17
 C    -0.54850  -2.53340  -1.53240    23    15    24    27
 C    -1.61280  -1.72010  -1.93120    24    23    25    26
 C    -2.77940  -1.63790  -1.12760    25    34    24     6
 C    -1.17400  -0.49810  -2.51570    26    32    30    24
 C     0.81600  -2.28200  -1.75900    27    23    29    18
 C     2.47800  -0.57570  -1.97270    28    31    29    39
 C     1.23610  -1.09220  -2.38300    29    30    28    27
 C     0.19800  -0.19810  -2.68940    30    29    41    26
 C     3.27710  -1.19280  -1.01460    31    45    17    28
 C    -1.86710   0.69930  -2.28290    32    35    33    26
 C    -3.01800   0.70420  -1.50660    33    34    32    36
 C    -3.52120  -0.47410  -1.03660    34     1    33    25
 C    -0.91210   1.70170  -2.21770    35    38    32    41
 C    -3.04470   1.64130  -0.44090    36    37     2    33
 C    -2.02820   2.54520  -0.30960    37    36    38     4
 C    -1.03240   2.70530  -1.27360    38    44    35    37
 C     2.63320   0.81820  -1.73690    39    42    40    28
 C     1.56700   1.70100  -1.93200    40    39    43    41
 C     0.36570   1.18620  -2.49220    41    35    30    40
 C     3.49450   0.94480  -0.64330    42    45    52    39
 C     1.38590   2.69740  -0.93850    43    44    49    40
 C     0.11070   3.10310  -0.68240    44     3    38    43
 C     3.85850  -0.28050  -0.25350    45    31    42    48
 C     1.85860   0.70170   2.27650    46    51    47    19
 C     3.00850   0.71480   1.49840    47    48    46    52
 C     3.50500  -0.46630   1.02440    48    45    47    22
 C     2.05790   2.57900   0.30100    49    52    50    43
 C     1.04480   2.69000   1.26360    50     3    51    49
 C     0.90600   1.70380   2.21730    51    50    46    14
 C     3.06630   1.67050   0.44620    52    49    42    47
