    52
C52-C1-322                                                                      
 C    -2.31390   2.32650  -0.64460     1     2    30     7
 C    -1.29960   2.83180   0.05490     2     1     4    36
 C     1.03220   2.83400  -0.04030     3     4    16     6
 C    -0.15550   2.88840  -0.65760     4     3     2    15
 C     2.23260   1.87130   1.48840     5     6    38    51
 C     1.03350   2.46410   1.32760     6     5    35     3
 C    -1.75130   1.86860  -1.82760     7     8     1    15
 C    -2.19140   0.65030  -2.23710     8     7     9    11
 C    -3.20970   0.02510  -1.56620     9    17     8    32
 C     1.02130  -1.04410  -2.43210    10    49    12    21
 C    -1.21190  -0.28920  -2.57360    11     8    12    19
 C     0.15640   0.02070  -2.68430    12    10    11    13
 C     0.65390   1.34490  -2.32730    13    15    14    12
 C     2.00440   1.47820  -1.79890    14    48    16    13
 C    -0.38570   2.18520  -1.83810    15     4     7    13
 C     2.16330   2.30730  -0.63250    16    51     3    14
 C    -2.89710  -1.28060  -1.48490    17    18     9    19
 C    -3.27030  -1.73290  -0.27930    18    17    28    22
 C    -1.66790  -1.52330  -2.02510    19    17    20    11
 C    -0.74220  -2.38940  -1.41080    20    21    19    27
 C     0.60090  -2.21020  -1.73580    21    20    46    10
 C    -3.81170  -0.64860   0.39880    22    23    32    18
 C    -3.16190  -0.65480   1.58450    23    24    22    33
 C    -2.33620  -1.71310   1.64550    24    23    26    28
 C    -0.03430  -1.96660   1.97910    25    26    40    29
 C    -1.20670  -1.37060   2.30930    26    24    25    34
 C    -1.07140  -2.80750  -0.05410    27    28    29    20
 C    -2.32640  -2.41390   0.45580    28    18    24    27
 C     0.05620  -2.75560   0.81450    29    47    25    27
 C    -3.21240   1.63810   0.12910    30     1    32    31
 C    -2.53950   1.61210   1.39110    31    33    36    30
 C    -3.79390   0.49030  -0.38590    32    22    30     9
 C    -2.48430   0.42900   2.09570    33    23    31    34
 C    -1.24560  -0.00280   2.60910    34    26    33    39
 C    -0.14120   2.03310   1.97350    35     6    36    39
 C    -1.36060   2.36220   1.34810    36     2    31    35
 C     3.38410   0.05800   1.37580    37    44    38    50
 C     2.38680   0.67140   2.11800    38     5    37    41
 C    -0.03580   0.73760   2.63090    39    34    41    35
 C     1.18150  -1.35350   2.19760    40    25    42    41
 C     1.23270   0.02650   2.58230    41    38    40    39
 C     2.13420  -1.92030   1.33520    42    44    40    47
 C     3.62360  -1.22030  -0.39420    43    45    44    52
 C     3.26970  -1.23480   0.93370    44    37    43    42
 C     2.75030  -1.78070  -1.25490    45    49    43    46
 C     1.68020  -2.55140  -0.91630    46    45    47    21
 C     1.37540  -2.68760   0.42360    47    29    46    42
 C     2.89900   0.37250  -1.80160    48    49    52    14
 C     2.31740  -0.82790  -2.09950    49    45    10    48
 C     3.81260   0.84700   0.31820    50    51    52    37
 C     3.01920   1.91890   0.37230    51    50     5    16
 C     3.83550   0.08990  -0.78660    52    50    43    48
