    52
C52-C1-240                                                                      
 C    -2.93270  -2.30670   0.61210     1    33     5     2
 C    -1.81790  -2.41060   1.35200     2     1    16    36
 C     2.04360  -0.98670   2.00360     3    17     4    38
 C     0.77650  -1.56380   1.97020     4     3    35    15
 C    -2.57260  -2.39310  -0.66230     5     1     7     6
 C    -2.97100  -1.23710  -1.30500     6     5    10    18
 C    -1.26830  -2.80780  -0.69780     7     8     5    16
 C    -0.40570  -2.29380  -1.61140     8     7    12     9
 C    -0.79170  -1.16420  -2.35300     9    24     8    10
 C    -2.06450  -0.57940  -2.17740    10    11     9     6
 C    -2.04760   0.81510  -2.17750    11    19    10    26
 C     0.94310  -2.23610  -1.40540    12     8    45    14
 C     2.79450  -1.98840   0.05030    13    17    14    50
 C     1.52970  -2.51520  -0.13740    14    13    12    15
 C     0.55540  -2.55540   0.91600    15    16    14     4
 C    -0.76210  -2.84970   0.61480    16     2    15     7
 C     3.12870  -1.36750   1.23780    17    51    13     3
 C    -3.70960  -0.49780  -0.32530    18    20    33     6
 C    -2.86690   1.50270  -1.31040    19    22    11    20
 C    -3.60200   0.86880  -0.33210    20    18    19    27
 C    -0.97020   2.60540  -1.38820    21    22    23    26
 C    -2.20700   2.56950  -0.82430    22    19    28    21
 C     0.11730   2.87440  -0.58900    23    49    21    29
 C     0.39550  -0.45500  -2.58690    24    45     9    25
 C     0.43380   0.95510  -2.50780    25    26    24    48
 C    -0.82720   1.53720  -2.28080    26    21    25    11
 C    -3.20060   1.53410   0.82490    27    28    31    20
 C    -2.38200   2.56690   0.51810    28    27    22    30
 C    -0.04390   2.80360   0.80860    29    40    30    23
 C    -1.28190   2.51460   1.31660    30    28    29    34
 C    -2.64060   0.81200   1.86090    31    32    27    34
 C    -2.81430  -0.53490   1.88550    32    31    33    36
 C    -3.55500  -1.16860   0.89040    33     1    32    18
 C    -1.38640   1.38370   2.14310    34    30    31    39
 C    -0.37230  -0.79890   2.42540    35    36     4    39
 C    -1.66030  -1.30360   2.14310    36     2    32    35
 C     3.37940   0.68470   1.49260    37    51    44    38
 C     2.21480   0.39580   2.19130    38    37    41     3
 C    -0.21460   0.64490   2.49940    39    41    34    35
 C     1.10970   2.28250   1.31590    40    29    42    41
 C     1.07870   1.19630   2.23740    41    38    40    39
 C     2.08450   2.26840   0.31290    42    44    49    40
 C     3.71140   0.86580  -0.69020    43    52    44    47
 C     3.21240   1.52420   0.40490    44    42    43    37
 C     1.48580  -1.19950  -2.15620    45    46    24    12
 C     2.70000  -0.68190  -1.84350    46    45    50    47
 C     2.79270   0.70800  -1.73120    47    43    46    48
 C     1.63850   1.49850  -1.92950    48    47    49    25
 C     1.38120   2.42880  -0.88490    49    23    42    48
 C     3.51580  -1.23350  -0.88750    50    52    46    13
 C     4.05860  -0.40250   1.04020    51    52    17    37
 C     4.28550  -0.30610  -0.26940    52    51    50    43
