    52
C52-C1-298                                                                      
 C    -1.18070   2.31870   1.54840     1     2     5    30
 C    -2.18020   1.46970   1.80620     2     1    10    16
 C     2.36530   2.10210   0.93850     3     6     9     4
 C     1.12960   2.70930   1.20910     4    35     3     5
 C     0.13090   2.06710   1.96890     5     1     4     8
 C     2.63550   0.89440   1.48770     6     3     7    52
 C     1.68000   0.26580   2.30030     7    17     8     6
 C     0.38480   0.75100   2.52510     8     7     5    15
 C     2.72150   2.35030  -0.37360     9    36     3    49
 C    -3.12670   1.46520   0.84110    10    11     2    29
 C    -3.66110   0.24270   0.82890    11    18    10    12
 C    -2.93510  -0.54170   1.69320    12    25    16    11
 C     0.94060  -1.98210   2.08110    13    17    26    14
 C    -0.40520  -1.63870   2.21560    14    13    24    15
 C    -0.69580  -0.24360   2.59620    15    16     8    14
 C    -1.97880   0.21220   2.31960    16    12     2    15
 C     1.93180  -1.04590   2.17640    17     7    48    13
 C    -3.72710  -0.40010  -0.33790    18    11    19    27
 C    -3.23340  -1.66600  -0.09600    19    20    18    25
 C    -2.48010  -1.99800  -1.13690    20    19    21    32
 C    -1.32020  -2.67210  -1.06450    21    20    40    23
 C     0.63530  -3.21390   0.14370    22    26    45    23
 C    -0.74240  -3.02100   0.19260    23    22    21    24
 C    -1.35870  -2.33930   1.33960    24    25    23    14
 C    -2.62710  -1.75280   1.14670    25    12    19    24
 C     1.46780  -2.85270   1.16060    26    22    13    46
 C    -3.03760   0.12640  -1.43870    27    32    18    28
 C    -2.37610   1.37860  -1.44290    28    27    29    33
 C    -2.53900   2.12240  -0.21920    29    10    30    28
 C    -1.46920   2.86020   0.26560    30    31    29     1
 C    -0.42410   3.22380  -0.49530    31    30    35    34
 C    -2.34510  -0.92050  -1.94250    32    37    20    27
 C    -1.08480   1.50870  -2.11370    33    34    28    38
 C    -0.21620   2.53890  -1.71280    34    39    33    31
 C     0.82350   3.40580   0.04230    35    36    31     4
 C     1.75500   3.12520  -0.85570    36    35    39     9
 C    -1.10050  -0.89560  -2.45450    37    32    40    38
 C    -0.38720   0.30690  -2.61270    38    37    43    33
 C     1.14940   2.48770  -1.84950    39    36    44    34
 C    -0.48860  -2.07900  -2.04680    40    41    37    21
 C     0.84500  -2.15090  -1.93870    41    40    45    42
 C     1.64980  -1.03300  -2.16090    42    41    43    50
 C     1.06800   0.21160  -2.51590    43    44    42    38
 C     1.80370   1.31870  -2.10340    44    39    43    49
 C     1.41240  -2.87830  -0.96020    45    41    47    22
 C     2.70360  -2.43980   0.71120    46    48    47    26
 C     2.61050  -2.36130  -0.62670    47    46    45    50
 C     2.98450  -1.29800   1.35460    48    46    17    52
 C     2.89550   1.23280  -1.17910    49     9    51    44
 C     2.78560  -1.15990  -1.30530    50    47    51    42
 C     3.28740  -0.00010  -0.66850    51    49    50    52
 C     3.32210  -0.10910   0.76230    52    48     6    51
