    52
C52-C1-124                                                                      
 C    -1.55150  -2.23000  -1.51830     1     2     7    39
 C    -0.23200  -2.11830  -1.76520     2     1    24    10
 C     1.77990  -0.84130  -2.09410     3    14     4    10
 C     2.45000  -1.76150  -1.22860     4     5    25     3
 C     3.52290  -1.36980  -0.45360     5     6    20     4
 C     4.14120  -0.16450  -0.48310     6    15     5    23
 C    -2.46560  -1.23970  -1.69350     7     1     8    18
 C    -1.97090   0.00910  -2.08290     8     7    16     9
 C    -0.54200   0.15430  -2.39760     9    12    10     8
 C     0.37270  -0.97690  -2.31560    10     2     3     9
 C    -0.69980   2.38140  -1.45010    11    17    12    48
 C     0.07760   1.41860  -2.08180    12    13    11     9
 C     1.43630   1.50360  -1.83450    13    12    14    43
 C     2.32530   0.44610  -1.97410    14    15    13     3
 C     3.43530   0.72920  -1.21440    15     6    21    14
 C    -2.67530   1.08560  -1.49970    16    17     8    52
 C    -2.03440   2.25490  -1.25500    17    49    11    16
 C    -3.45130  -1.44840  -0.72350    18    50    38     7
 C     3.45330  -0.53710   1.51670    19    20    23    27
 C     3.17720  -1.66280   0.83250    20    19    26     5
 C     3.15070   1.81420  -0.45660    21    43    15    22
 C     3.51230   1.53350   0.82660    22    23    21    36
 C     4.18270   0.35720   0.78570    23    22    19     6
 C     0.37720  -2.85060  -0.74990    24    25    32     2
 C     1.64490  -2.56910  -0.44470    25    24     4    26
 C     2.00420  -2.32550   0.88340    26    20    25    29
 C     2.31520   0.07770   2.03190    27    19    36    28
 C     1.07040  -0.57210   2.22160    28    27    34    29
 C     0.91570  -1.93870   1.70350    29    26    31    28
 C    -1.50870  -1.71930   1.81760    30    37    31    33
 C    -0.37800  -2.43650   1.40320    31    30    29    32
 C    -0.62190  -3.13130   0.16890    32    39    24    31
 C    -1.36060  -0.38340   2.22100    33    41    30    34
 C    -0.10250   0.23950   2.32580    34    33    28    46
 C     1.17410   2.12020   1.38900    35    36    46    44
 C     2.37070   1.42830   1.61190    36    22    35    27
 C    -2.76240  -1.81300   1.22730    37    42    38    30
 C    -2.96340  -2.47880   0.06970    38    39    37    18
 C    -1.85130  -3.00810  -0.43730    39    38     1    32
 C    -2.51750   1.57130   1.47540    40    41    45    51
 C    -2.53400   0.27160   1.84220    41    40    42    33
 C    -3.34440  -0.61020   1.19500    42    37    41    50
 C     1.95700   2.33910  -0.80860    43    21    44    13
 C     1.03470   2.82310   0.11530    44    48    43    35
 C    -1.27930   2.22960   1.50010    45    47    40    46
 C    -0.06380   1.63690   1.92370    46    45    35    34
 C    -1.34990   3.15050   0.46900    47    49    48    45
 C    -0.23430   3.09100  -0.31090    48    47    44    11
 C    -2.49910   2.88100  -0.16230    49    51    47    17
 C    -3.89470  -0.32370  -0.04690    50    52    18    42
 C    -3.32430   2.00150   0.40140    51    49    52    40
 C    -3.67040   0.96470  -0.47200    52    50    51    16
