    52
C52-C2-420                                                                      
 C     0.56840  -1.88080   2.35580     1     2    32     3
 C    -0.27410  -2.65830   1.66190     2     1    39    16
 C    -0.07730  -0.77440   2.83150     3     1     8     4
 C     0.56620   0.48190   2.77920     4     3     5    11
 C     1.92950   0.44670   2.34250     5     6     4    31
 C     2.48210   1.47790   1.56930     6    20     7     5
 C     1.66230   2.48790   1.12480     7     6    12    21
 C    -1.41700  -0.97550   2.49430     8     9     3    16
 C    -2.20930   0.09750   2.22740     9     8    13    10
 C    -1.65470   1.39100   2.16000    10     9    47    11
 C    -0.25510   1.60760   2.40720    11    12    10     4
 C     0.34300   2.59880   1.58350    12    23     7    11
 C    -3.16870  -0.01420   1.26450    13    46     9    17
 C    -1.69730  -2.65370  -0.61760    14    38    50    15
 C    -2.36610  -2.17010   0.55230    15    17    16    14
 C    -1.54190  -2.14430   1.69920    16     2    15     8
 C    -3.23400  -1.07950   0.37100    17    13    52    15
 C     3.27940   1.17240  -0.62340    18    20    25    19
 C     2.36990   2.04430  -1.14370    19    18    21    29
 C     3.36040   0.89180   0.69330    20    30    18     6
 C     1.64840   2.80840  -0.25670    21    22    19     7
 C     0.37530   3.11050  -0.53680    22    21    23    27
 C    -0.40150   3.13790   0.55480    23    22    48    12
 C     2.22020   0.10190  -2.23160    24    26    25    29
 C     3.17790  -0.01400  -1.26400    25    18    24    33
 C     1.42620  -0.97380  -2.49340    26    24    45    34
 C    -0.34470   2.58600  -1.59020    27    22    41    28
 C     0.25840   1.60830  -2.42600    28    27    29    44
 C     1.65410   1.39210  -2.17920    29    24    19    28
 C     3.35220  -0.44530   0.85470    30    20    31    33
 C     2.54360  -0.76870   1.89710    31    30    32     5
 C     1.80360  -1.90930   1.80870    32     1    31    36
 C     3.23670  -1.08790  -0.38120    33    25    30    35
 C     1.54590  -2.13860  -1.68990    34    37    35    26
 C     2.37200  -2.18040  -0.53900    35    33    34    36
 C     1.69470  -2.67290   0.61930    36    39    32    35
 C     0.27500  -2.64690  -1.65580    37    40    38    34
 C    -0.36840  -3.15670  -0.57350    38    37    39    14
 C     0.36750  -3.16880   0.57640    39     2    38    36
 C    -0.56530  -1.87730  -2.35710    40    37    50    45
 C    -1.65630   2.48880  -1.11130    41    42    27    48
 C    -2.45930   1.45920  -1.55620    42    49    41    43
 C    -1.91830   0.43340  -2.34560    43    42    51    44
 C    -0.55520   0.47960  -2.79230    44    45    43    28
 C     0.08570  -0.77580  -2.83810    45    40    26    44
 C    -3.27890   1.17650   0.63240    46    49    13    47
 C    -2.38750   2.07140   1.14560    47    46    48    10
 C    -1.67800   2.84490   0.26640    48    23    47    41
 C    -3.35710   0.88760  -0.68500    49    52    46    42
 C    -1.80660  -1.89970  -1.82030    50    40    51    14
 C    -2.55790  -0.76550  -1.89930    51    52    50    43
 C    -3.37000  -0.44900  -0.86250    52    49    51    17
