    52
C52-C1-199                                                                      
 C     2.91190  -1.38040   1.16420     1     2    34     9
 C     3.06190  -0.09880   1.56720     2     1     3    13
 C     3.69040   0.80440   0.71100     3     4    25     2
 C     3.10440   1.97150   0.96530     4     3    16     5
 C     2.09010   1.85660   1.82980     5     4    19    13
 C    -1.67620   0.17950   2.35800     6    32     7    14
 C    -0.43360   0.79360   2.40210     7     6    12    18
 C     1.54080  -2.93370   0.41690     8    35    50     9
 C     1.69980  -2.03420   1.45030     9     8     1    11
 C    -0.72730  -1.94740   1.76860    10    14    11    52
 C     0.58210  -1.44000   2.08720    11     9    10    12
 C     0.74250  -0.04430   2.46180    12    13     7    11
 C     1.99470   0.54540   2.21330    13     5     2    12
 C    -1.86240  -1.20010   2.12090    14    49    10     6
 C     1.32280   2.97220   0.14310    15    17    16    19
 C     2.56450   2.47660  -0.14650    16     4    15    24
 C     0.33510   2.93290  -0.76590    17    15    20    22
 C    -0.32820   2.10620   1.75170    18    19    21     7
 C     0.96830   2.51630   1.43410    19     5    18    15
 C    -1.00250   2.85630  -0.41290    20    30    17    21
 C    -1.42480   2.46730   0.87970    21    33    20    18
 C     0.53320   2.11260  -1.89390    22    27    23    17
 C     1.64510   1.27250  -2.03370    23    22    24    28
 C     2.73040   1.53590  -1.16260    24    16    25    23
 C     3.54020   0.51660  -0.64380    25    26     3    24
 C     3.31810  -0.76830  -1.03500    26    25    34    29
 C    -0.70360   1.71720  -2.22340    27    22    30    36
 C     1.34480  -0.10420  -2.40290    28    29    23    37
 C     2.24980  -1.07430  -1.91440    29    38    28    26
 C    -1.66280   2.25230  -1.44870    30    46    27    20
 C    -3.67810  -0.14490   1.42760    31    32    49    44
 C    -2.80560   0.77910   1.83930    32    31    33     6
 C    -2.65110   1.78720   0.93490    33    32    21    45
 C     3.34610  -1.80450  -0.09290    34    35     1    26
 C     2.49800  -2.73090  -0.49270    35    34    38     8
 C    -1.06210   0.46540  -2.57120    36    27    39    37
 C    -0.05690  -0.52090  -2.58470    37    36    42    28
 C     1.81440  -2.32930  -1.56090    38    35    43    29
 C    -2.37420   0.31180  -2.09710    39    40    36    46
 C    -2.76300  -0.90590  -1.60700    40    47    39    41
 C    -1.78450  -1.88840  -1.49370    41    40    42    51
 C    -0.48440  -1.79080  -2.02870    42    43    41    37
 C     0.48330  -2.58000  -1.43980    43    38    42    50
 C    -4.01260   0.15740   0.14770    44    31    47    45
 C    -3.43730   1.37110  -0.18860    45    46    44    33
 C    -2.75820   1.47820  -1.37980    46    30    45    39
 C    -3.61600  -0.96340  -0.53930    47    48    40    44
 C    -3.11640  -1.89960   0.31410    48    49    47    51
 C    -3.11210  -1.35620   1.54370    49    31    48    14
 C     0.29320  -3.04780  -0.11070    50     8    52    43
 C    -2.00550  -2.48530  -0.21280    51    48    52    41
 C    -0.86850  -2.75940   0.55420    52    50    51    10
