    52
C52-C2-395                                                                      
 C    -1.53640   2.33800   1.32580     1    31    40     3
 C    -2.51240   0.30370   2.01520     2    12    41     3
 C    -1.46650   1.21420   2.21120     3     2     1     4
 C    -0.14300   0.73070   2.58260     4     5     3    14
 C     0.96000   1.54350   2.23780     5     6    32     4
 C     2.20960   1.04760   2.05230     6     5     7    16
 C     2.92240   1.73340   1.11830     7     8     6    22
 C     3.70910   0.86620   0.47580     8     7    18     9
 C     3.49460  -0.36990   1.05470     9    11     8    16
 C     2.45300  -2.30680   0.22730    10    11    29    17
 C     3.38770  -1.32210   0.07250    11    10     9    19
 C    -2.19480  -1.02150   2.03130    12    13    44     2
 C    -0.94870  -1.51440   2.22060    13    12    50    14
 C     0.15620  -0.71390   2.57870    14    13    15     4
 C     1.47700  -1.19860   2.20980    15    16    17    14
 C     2.51600  -0.28280   2.04010    16     6     9    15
 C     1.52650  -2.31150   1.31110    17    51    10    15
 C     3.51300   0.68990  -0.84800    18    19     8    20
 C     3.37830  -0.61770  -1.12780    19    18    25    11
 C     2.51170   1.38870  -1.51200    20    18    21    26
 C     1.80360   2.43030  -0.87100    21    23    20    22
 C     2.01310   2.57600   0.54270    22     7    32    21
 C     0.50620   2.63210  -1.31570    23    30    21    28
 C     1.55260  -1.87480  -1.93740    24    25    29    36
 C     2.37620  -0.78780  -2.05130    25    24    19    26
 C     1.80150   0.45660  -2.32420    26    25    27    20
 C     0.42510   0.58220  -2.63400    27    28    26    37
 C    -0.18480   1.78390  -2.21330    28    34    27    23
 C     1.68070  -2.69150  -0.83970    29    52    10    24
 C    -0.47550   3.06000  -0.45290    30    35    31    23
 C    -0.35120   2.94270   0.89590    31    32    30     1
 C     0.87020   2.63470   1.36360    32    31     5    22
 C    -2.37180   0.78610  -2.02260    33    34    42    38
 C    -1.54410   1.86800  -1.92690    34    33    35    28
 C    -1.68560   2.66890  -0.82160    35    30    40    34
 C     0.18050  -1.79860  -2.20750    36    24    37    46
 C    -0.43010  -0.59140  -2.62630    37    36    38    27
 C    -1.80670  -0.46640  -2.30580    38    33    37    49
 C    -3.39370   1.34000   0.07820    39    40    41    42
 C    -2.47190   2.33190   0.24840    40    39    35     1
 C    -3.50810   0.37670   1.04300    41    39    43     2
 C    -3.37270   0.59840  -1.10320    42    45    33    39
 C    -3.71610  -0.85940   0.47390    43    44    45    41
 C    -2.90150  -1.72010   1.10440    44    43    12    47
 C    -3.52820  -0.71940  -0.85910    45    42    43    49
 C    -0.50290  -2.67670  -1.32410    46    52    48    36
 C    -2.01040  -2.56670   0.51270    47    44    50    48
 C    -1.80940  -2.45350  -0.90710    48    46    49    47
 C    -2.53490  -1.41920  -1.53150    49    45    48    38
 C    -0.86300  -2.60330   1.34020    50    51    13    47
 C     0.35580  -2.92670   0.86880    51    50    52    17
 C     0.48210  -3.10680  -0.47040    52    29    51    46
