    52
C52-C1-17                                                                       
 C     2.18260  -1.87090  -0.94100     1     2     3    42
 C     3.44410  -1.36800  -1.05950     2    11     1    39
 C     1.05200  -1.32910  -1.56320     3     8     1     4
 C     1.21380   0.01250  -2.06880     4    12    13     3
 C    -1.24920   0.18670  -2.09920     5     6    13     7
 C    -2.40110   0.96090  -1.85930     6    21    52     5
 C    -1.39240  -1.19440  -1.68850     7     9     8     5
 C    -0.20980  -1.81920  -1.21340     8     3     7    44
 C    -2.65290  -1.63550  -1.21320     9    51    45     7
 C     4.55480   0.50530  -0.81600    10    11    38    14
 C     3.61190  -0.13360  -1.56730    11     2    12    10
 C     2.48960   0.57030  -1.88930    12    11    17     4
 C     0.04590   0.80070  -2.07600    13     4     5    18
 C     3.79200   1.59670  -0.46730    14    15    10    17
 C     3.42260   1.34980   0.83300    15    16    14    23
 C     2.19440   1.71340   1.27290    16    15    20    24
 C     2.63870   1.80280  -1.25520    17    19    12    14
 C     0.18190   2.12700  -1.46930    18    22    19    13
 C     1.43980   2.38590  -0.85320    19    17    20    18
 C     1.28970   2.46910   0.55730    20    34    16    19
 C    -2.25080   2.13660  -1.21210    21    22     6    48
 C    -1.02010   2.55120  -0.88580    22    21    33    18
 C     3.93340   0.10650   1.13640    23    15    38    26
 C     1.37090   0.85390   1.98720    24    30    16    25
 C     1.72470  -0.49430   2.01460    25    24    26    28
 C     3.01570  -0.84330   1.59370    26    40    23    25
 C    -0.74670  -0.87340   1.98710    27    29    28    31
 C     0.59370  -1.33560   1.80760    28    25    27    41
 C    -1.78870  -1.64660   1.52270    29    32    27    43
 C     0.07110   1.30010   1.94730    30    24    34    31
 C    -1.07340   0.52200   2.10450    31    30    27    36
 C    -3.09310  -1.24820   1.40360    32    46    29    37
 C    -1.11810   2.65450   0.49870    33    34    35    22
 C     0.04310   2.40390   1.11480    34    33    20    30
 C    -2.35890   2.15180   0.86640    35    48    33    36
 C    -2.37620   0.98720   1.69110    36    37    35    31
 C    -3.44040   0.08590   1.43680    37    32    36    50
 C     4.81790  -0.38800   0.19720    38    39    10    23
 C     4.25450  -1.61580   0.01540    39    38     2    40
 C     3.27510  -2.01220   0.88630    40    39    42    26
 C     0.80990  -2.40950   0.84620    41    42    44    28
 C     2.08830  -2.46160   0.32990    42    41    40     1
 C    -1.59710  -2.61170   0.52560    43    45    44    29
 C    -0.31970  -2.59810   0.01760    44    43    41     8
 C    -2.79020  -2.51240  -0.14090    45    46    43     9
 C    -3.84780  -1.97810   0.53830    46    47    32    45
 C    -4.58070  -1.03290  -0.06940    47    46    51    50
 C    -3.21180   2.13990  -0.22570    48    49    21    35
 C    -4.16430   1.19110  -0.40690    49    48    50    52
 C    -4.50910   0.23300   0.50740    50    49    47    37
 C    -3.77410  -0.83370  -1.17170    51    52     9    47
 C    -3.58750   0.45060  -1.42380    52    51     6    49
