    52
C52-C2-88                                                                       
 C     3.37380  -1.25850   1.23840     1    32     2     4
 C     3.36670  -1.57410  -0.11110     2     3    10     1
 C     2.30330  -2.22590  -0.61390     3     2     9    11
 C     2.11800  -1.33210   1.85610     4     8     1    40
 C    -1.84390   0.04040   2.27370     5    50     6    41
 C    -0.54250  -0.44980   2.35120     6     5    39     7
 C    -0.32050  -1.78730   1.78020     7     8    52     6
 C     1.04040  -2.10510   1.43050     8     4     9     7
 C     1.25370  -2.71600   0.17160     9    47     3     8
 C     3.86700  -0.43530  -0.71620    10    31     2    14
 C     1.66310  -1.72930  -1.76740    11    12    13     3
 C     0.40700  -2.19490  -1.72330    12    11    47    20
 C     1.89660  -0.43960  -2.25420    13    11    14    16
 C     3.02120   0.18120  -1.64710    14    15    10    13
 C     2.93780   1.48880  -1.17460    15    18    25    14
 C     0.67900   0.28740  -2.59680    16    17    13    21
 C     0.73820   1.62310  -2.15530    17    29    18    16
 C     1.76470   2.12020  -1.35520    18    15    17    27
 C    -1.75710  -2.11420  -1.34970    19    22    20    48
 C    -0.73010  -1.61630  -2.15110    20    12    19    21
 C    -0.68290  -0.28480  -2.59230    21    20    24    16
 C    -2.93570  -1.48790  -1.15280    22    19    49    23
 C    -3.01450  -0.17030  -1.62770    23    30    22    24
 C    -1.88920   0.45100  -2.23880    24    28    23    21
 C     3.59600   1.55520   0.03100    25    31    15    34
 C    -0.17410   2.82080  -0.57980    26    27    36    29
 C     1.11300   2.71570  -0.26130    27    26    33    18
 C    -1.67340   1.74760  -1.76310    28    29    24    45
 C    -0.41160   2.19020  -1.74200    29    28    26    17
 C    -3.86800   0.43600  -0.69590    30    46    44    23
 C     4.32480   0.42570   0.23990    31    32    25    10
 C     3.97540  -0.06820   1.43440    32    31    35     1
 C     1.46390   2.29590   1.02870    33    34    27    38
 C     2.74350   1.75910   1.13240    34    35    33    25
 C     2.98670   0.68650   1.95270    35    32    34    40
 C    -1.26700   2.69540   0.17600    36    26    45    37
 C    -1.03240   2.11600   1.44970    37    41    36    38
 C     0.32760   1.79010   1.79760    38    37    33    39
 C     0.56420   0.46150   2.37350    39    40     6    38
 C     1.86760  -0.02410   2.31840    40    35    39     4
 C    -2.12350   1.35370   1.85930    41    37    42     5
 C    -3.37950   1.28600   1.24990    42    43    44    41
 C    -3.96400   0.08730   1.39210    43    46    42    50
 C    -3.38420   1.59400  -0.10000    44    45    42    30
 C    -2.32890   2.24230  -0.61990    45    44    36    28
 C    -4.33480  -0.45890   0.22840    46    43    49    30
 C     0.16670  -2.85990  -0.58440    47    48     9    12
 C    -1.11550  -2.74500  -0.25880    48    47    52    19
 C    -3.62370  -1.59540   0.04020    49    46    22    51
 C    -2.95200  -0.67240   1.87910    50    43    51     5
 C    -2.74500  -1.78950   1.12230    51    50    52    49
 C    -1.46750  -2.31300   1.02890    52    51    48     7
