    52
C52-C2-5                                                                        
 C     3.75870  -0.76180  -1.37660     1     2     4     8
 C     3.79450  -1.62870  -0.32600     2     6     1    39
 C     3.54850   1.31390  -1.25100     3     4    43    16
 C     4.47570   0.34570  -1.02160     4     3    40     1
 C     0.25410  -2.42850  -0.16660     5    13     7    22
 C     2.59400  -2.15720   0.03950     6     2     7    20
 C     1.45340  -2.17730  -0.76600     7     5     6    10
 C     2.53960  -0.47180  -1.96810     8     1    16    10
 C     0.06530  -0.71520  -2.16370     9    12    10    18
 C     1.36820  -1.23000  -1.84950    10     8     9     7
 C    -2.41110  -0.90880  -1.92780    11    12    38    19
 C    -1.12320  -1.42660  -1.82940    12    11    13     9
 C    -0.97500  -2.28600  -0.72560    13     5    35    12
 C     0.98380   2.29210  -0.74320    14    50    42    15
 C     1.13650   1.44030  -1.85940    15    16    14    18
 C     2.41870   0.91460  -1.96070    16    15     8     3
 C    -1.37230   1.24510  -1.83180    17    19    18    52
 C    -0.06990   0.74100  -2.16870    18    15    17     9
 C    -2.54130   0.48000  -1.94550    19    49    11    17
 C     2.38540  -1.70050   1.36730    20    21    23     6
 C     3.45620  -0.87660   1.59160    21    39    20    26
 C     0.06540  -2.12600   1.18660    22    28    23     5
 C     1.09670  -1.47390   1.82050    23    22    20    24
 C     0.70990  -0.17340   2.29150    24    23    25    31
 C     1.76760   0.77980   2.04440    25    27    26    24
 C     3.11550   0.44140   1.78370    26    21    41    25
 C     1.26890   1.86760   1.32360    27    33    42    25
 C    -1.27050  -1.90290   1.35130    28    22    35    30
 C    -3.10380  -0.46030   1.77070    29    44    36    30
 C    -1.76180  -0.80070   2.05630    30    28    29    31
 C    -0.70510   0.15550   2.28080    31    32    30    24
 C    -1.09300   1.44410   1.78000    32    33    45    31
 C    -0.05940   2.08830   1.13880    33    27    32    50
 C    -3.25070  -1.86980  -0.01690    34    35    38    36
 C    -1.98380  -2.26980   0.21730    35    34    13    28
 C    -3.97560  -1.11780   0.89140    36    46    34    29
 C    -4.47550  -0.36520  -1.02730    37    38    46    49
 C    -3.55120  -1.32230  -1.24400    38    37    34    11
 C     4.46530  -0.97460   0.67550    39    40    21     2
 C     4.85810   0.26360   0.28680    40    39     4    41
 C     3.97890   1.12440   0.90530    41    40    43    26
 C     1.99360   2.25510   0.20450    42    43    14    27
 C     3.26740   1.86400  -0.01510    43    42    41     3
 C    -3.44710   0.86070   1.56700    44    45    47    29
 C    -2.38060   1.67320   1.32360    45    44    32    51
 C    -4.86210  -0.25080   0.27660    46    47    37    36
 C    -4.46950   0.98650   0.66380    47    46    48    44
 C    -3.82690   1.66270  -0.33660    48    49    47    51
 C    -3.77120   0.76340  -1.36210    49    48    37    19
 C    -0.25480   2.45650  -0.19890    50    14    52    33
 C    -2.61620   2.19480   0.02320    51    48    52    45
 C    -1.47020   2.22510  -0.77600    52    50    51    17
