    52
C52-C2-383                                                                      
 C     0.64660   3.37190   0.13410     1     2    31     3
 C    -0.65060   3.38640  -0.12460     2     1    10    36
 C     0.82890   2.77040   1.37280     3     4     6     1
 C     1.93450   2.01180   1.58030     4     3     5    17
 C     2.91000   1.95750   0.60180     5    14     4    30
 C    -0.43140   2.37970   1.80490     6     3    10     7
 C    -0.60310   1.07760   2.39430     7     8     6    16
 C    -1.86490   0.51550   2.13460     8    11    26     7
 C    -2.56170   2.30500   0.68290     9    10    11    12
 C    -1.39890   2.94290   0.93440    10     9     2     6
 C    -2.81900   1.15360   1.36770    11    49     9     8
 C    -2.92960   1.95760  -0.61180    12    52    35     9
 C     2.81260  -0.02380   1.56940    13    15    14    17
 C     3.46340   0.72730   0.62170    14     5    22    13
 C     2.58140  -1.34230   1.34110    15    13    18    20
 C     0.52900   0.19280   2.52620    16    17     7    19
 C     1.80150   0.74080   2.15180    17    13     4    16
 C     1.44740  -1.98670   1.82250    18    25    15    19
 C     0.33850  -1.24500   2.36290    19    18    16    27
 C     2.85650  -1.88410   0.05170    20    23    21    15
 C     3.08960  -0.98320  -0.96360    21    22    20    39
 C     3.49560   0.26590  -0.65300    22    29    21    14
 C     1.96340  -2.85510  -0.11700    23    20    25    37
 C     0.03580  -3.47750   0.67390    24    25    28    43
 C     1.23030  -3.05780   1.00660    25    24    23    18
 C    -2.04640  -0.85810   1.91370    26     8    27    46
 C    -0.98140  -1.77960   2.03570    27    26    28    19
 C    -1.10270  -2.93350   1.19340    28    24    48    27
 C     2.84480   1.17370  -1.40080    29    22    30    32
 C     2.57970   2.31820  -0.69930    30    31    29     5
 C     1.40100   2.93300  -0.92840    31    30     1    34
 C     1.89300   0.51290  -2.16000    32    29    39    33
 C     0.62680   1.08690  -2.38690    33    32    34    41
 C     0.43190   2.38560  -1.80010    34    36    31    33
 C    -1.92560   2.01880  -1.56690    35    36    12    42
 C    -0.82570   2.78830  -1.36720    36    35    34     2
 C     1.09850  -2.92390  -1.20690    37    43    23    38
 C     1.00400  -1.77560  -2.05060    38    39    37    40
 C     2.06620  -0.86180  -1.94890    39    32    38    21
 C    -0.32620  -1.24480  -2.34500    40    45    38    41
 C    -0.51190   0.19800  -2.49850    41    42    33    40
 C    -1.79190   0.73340  -2.11850    42    51    35    41
 C    -0.03580  -3.47620  -0.68930    43    44    37    24
 C    -1.24100  -3.04810  -0.97640    44    43    48    45
 C    -1.44280  -1.96880  -1.79560    45    44    50    40
 C    -3.09990  -0.99400   0.95030    46    49    47    26
 C    -2.88660  -1.91610  -0.04980    47    48    46    50
 C    -2.00420  -2.88920   0.13720    48    47    44    28
 C    -3.50500   0.25840   0.63160    49    11    46    52
 C    -2.59630  -1.34600  -1.33020    50    51    45    47
 C    -2.83260  -0.02650  -1.56090    51    50    52    42
 C    -3.49730   0.73730  -0.64400    52    12    49    51
