    52
C52-C1-189                                                                      
 C    -0.98540  -3.18370  -0.07290     1     2    22     7
 C    -2.13050  -2.78710   0.50680     2     1     3    34
 C    -2.90780  -2.14200  -0.39670     3     2    49     6
 C     1.41590  -2.41930  -1.08890     4     5     8    21
 C     2.54830  -1.72110  -1.17550     5     4    13     9
 C    -2.08450  -1.97890  -1.47370     6    42     7     3
 C    -0.89680  -2.61990  -1.34430     7     6     8     1
 C     0.28240  -2.07680  -1.83400     8     7     4    15
 C     3.23190  -1.71430   0.00530     9    10     5    20
 C     3.95700  -0.59670   0.04040    10     9    16    11
 C     3.66510   0.11200  -1.10780    11    12    13    10
 C     3.48800   1.38430  -0.71790    12    11    17    47
 C     2.68980  -0.53810  -1.83380    13     5    11    14
 C     1.49480   0.04870  -2.32380    14    13    46    15
 C     0.26330  -0.74190  -2.43810    15    43     8    14
 C     3.76980   0.22750   1.10780    16    17    10    18
 C     3.65920   1.48060   0.62170    17    30    16    12
 C     2.63440  -0.00070   1.89900    18    16    19    23
 C     1.88670  -1.20090   1.90390    19    18    26    20
 C     2.31000  -2.15690   0.91750    20     9    21    19
 C     1.32140  -2.85370   0.25650    21    22    20     4
 C     0.08720  -3.02790   0.74320    22    21     1    27
 C     1.91580   1.21860   1.93260    23    30    24    18
 C     0.54090   1.30500   2.14530    24    23    25    31
 C    -0.17950   0.08900   2.47380    25    29    26    24
 C     0.49600  -1.17700   2.26060    26    27    19    25
 C    -0.37010  -2.21060   1.78560    27    34    22    26
 C    -2.23180   1.22990   1.87750    28    29    32    36
 C    -1.58550   0.12210   2.31960    29    28    33    25
 C     2.59290   2.09910   1.09840    30    17    39    23
 C    -0.17970   2.36860   1.45180    31    32    41    24
 C    -1.57820   2.31900   1.39870    32    28    38    31
 C    -2.40470  -0.93290   1.90530    33    34    29    48
 C    -1.75850  -2.10390   1.63410    34    33     2    27
 C    -3.38970   1.80910   0.14420    35    36    38    50
 C    -3.36850   0.93370   1.18720    36    48    35    28
 C    -1.65770   2.82350  -0.79700    37    38    40    52
 C    -2.35890   2.71290   0.32840    38    37    32    35
 C     1.81640   2.60950   0.09800    39    41    30    47
 C    -0.31210   2.87770  -0.87680    40    37    41    45
 C     0.49180   2.88320   0.26740    41    39    40    31
 C    -2.21360  -0.74060  -1.99540    42     6    51    43
 C    -1.03270  -0.08560  -2.47490    43    44    42    15
 C    -1.05750   1.29540  -2.26500    44    52    45    43
 C     0.09410   1.98600  -1.90590    45    46    44    40
 C     1.36570   1.45280  -1.96990    46    45    47    14
 C     2.32560   2.01350  -1.09060    47    12    46    39
 C    -3.46180  -0.42100   1.09690    48    36    49    33
 C    -3.58060  -0.98140  -0.19180    49     3    48    51
 C    -3.21650   1.24870  -1.11360    50    52    51    35
 C    -3.27210  -0.11470  -1.27470    51    50    49    42
 C    -2.13160   1.88080  -1.64090    52    37    50    44
