    52
C52-C1-141                                                                      
 C     2.89920   0.86770   1.78230     1    12    32     4
 C     1.17230   2.59760   0.60010     2     3    13     5
 C     0.15420   2.85510  -0.29390     3     6     2    18
 C     1.61100   0.93330   2.23830     4     1    41     5
 C     0.69550   1.90460   1.80920     5     4     9     2
 C    -1.12780   2.87140   0.05770     6     3    46    10
 C    -2.52570   0.02720   2.06830     7    42    51     8
 C    -1.17860   0.35510   2.42410     8     7    40     9
 C    -0.71200   1.69680   2.02530     9    10     5     8
 C    -1.64640   2.43050   1.24660    10     6    52     9
 C     4.05520   0.73470  -0.04480    11    14    12    34
 C     3.37190   1.59550   0.74960    12     1    11    13
 C     2.42450   2.27820   0.04950    13    12     2    17
 C     3.45460   0.77010  -1.24040    14    11    15    17
 C     3.06010  -0.49420  -1.59950    15    14    16    23
 C     1.87430  -0.69020  -2.28080    16    24    15    20
 C     2.48710   1.76950  -1.28190    17    14    19    13
 C     0.18270   2.32290  -1.61050    18    19    29     3
 C     1.30490   1.63710  -2.01190    19    18    17    20
 C     1.00680   0.37750  -2.56510    20    16    19    31
 C     2.37230  -2.21720  -0.13170    21    22    23    35
 C     1.31020  -2.54640  -0.95670    22    26    21    24
 C     3.37590  -1.31080  -0.48490    23    34    21    15
 C     1.04570  -1.76660  -2.07900    24    16    25    22
 C    -0.26580  -1.45040  -2.39190    25    28    24    31
 C     0.21520  -2.93150  -0.21010    26    27    22    36
 C    -1.07140  -2.82980  -0.66780    27    39    26    28
 C    -1.34930  -2.03160  -1.78740    28    25    50    27
 C    -1.15380   1.96070  -1.88430    29    46    18    30
 C    -1.48440   0.66890  -2.36630    30    29    31    49
 C    -0.32270  -0.08650  -2.67450    31    25    20    30
 C     3.29910  -0.42510   1.64650    32     1    34    33
 C     2.22150  -1.18730   1.99240    33    32    35    41
 C     3.98960  -0.52390   0.47660    34    32    11    23
 C     1.81280  -2.20300   1.16410    35    36    33    21
 C     0.49810  -2.59250   1.12370    36    35    26    37
 C    -0.54260  -1.99690   1.88870    37    38    36    40
 C    -1.84190  -2.15050   1.42850    38    42    37    39
 C    -2.10820  -2.63700   0.15490    39    27    45    38
 C    -0.18860  -0.70840   2.47050    40    41     8    37
 C     1.17160  -0.37470   2.47250    41     4    40    33
 C    -2.81000  -1.22150   1.58830    42    38     7    43
 C    -3.68020  -1.16800   0.52360    43    44    45    42
 C    -3.92660   0.12890   0.31600    44    43    51    48
 C    -3.11570  -1.93480  -0.41860    45    43    39    50
 C    -1.94550   2.49730  -0.93570    46    47     6    29
 C    -3.03310   1.96280  -0.42530    47    46    48    52
 C    -3.48540   0.74440  -0.86390    48    47    44    49
 C    -2.68100   0.02000  -1.82600    49    50    48    30
 C    -2.57030  -1.38050  -1.57490    50    45    28    49
 C    -3.38580   0.85510   1.37200    51    52     7    44
 C    -2.91520   1.99950   0.94220    52    51    47    10
