    52
C52-C1-356                                                                      
 C    -0.73640   0.36710  -2.69550     1     3     8    13
 C     1.52700   1.02660  -2.28160     2    39     3    10
 C     0.62360   0.01560  -2.67160     3     1     2     6
 C     2.19900  -1.53450  -1.63890     4    38    42     6
 C    -0.11930  -2.17450  -1.97310     5     9     7     6
 C     0.96500  -1.33850  -2.33280     6     5     4     3
 C    -1.45980  -1.77990  -1.99810     7     8     5    46
 C    -1.78230  -0.53930  -2.45060     8    18     7     1
 C     0.00390  -2.97130  -0.87070     9    52    41     5
 C     1.00080   2.17730  -1.63310    10    11    14     2
 C     1.92930   2.50070  -0.71190    11    10    19    25
 C    -2.49900   1.40480  -1.79230    12    15    18    13
 C    -1.21360   1.59580  -2.17930    13    12    14     1
 C    -0.34640   2.40290  -1.43050    14    10    13    17
 C    -3.02520   1.89440  -0.68080    15    12    16    45
 C    -2.15170   2.49030   0.19990    16    26    15    17
 C    -0.80240   2.77740  -0.08460    17    16    24    14
 C    -2.84080   0.10570  -1.90360    18    12     8    49
 C     3.07380   1.78850  -0.82560    19    11    20    39
 C     3.54160   1.54310   0.42130    20    27    19    21
 C     2.53620   1.95260   1.25800    21    20    25    31
 C    -1.49010   1.43290   2.17640    22    32    26    23
 C    -0.14730   1.74810   2.07100    23    22    24    30
 C     0.21180   2.63070   0.95560    24    25    17    23
 C     1.54730   2.63920   0.60160    25    21    11    24
 C    -2.49780   1.88360   1.37200    26    16    22    43
 C     3.83980   0.27280   0.74960    27    20    37    28
 C     3.01210  -0.09800   1.77420    28    29    27    31
 C     2.52490  -1.36380   1.62810    29    28    35    40
 C     0.83480   0.73580   2.48450    30    31    23    34
 C     2.16270   0.93780   2.10770    31    21    28    30
 C    -1.88430   0.15770   2.46430    32    33    44    22
 C    -1.01250  -0.86390   2.51230    33    32    50    34
 C     0.37630  -0.66150   2.57630    34    33    35    30
 C     1.22540  -1.69700   2.01660    35    29    36    34
 C     0.55600  -2.65850   1.20610    36    51    41    35
 C     3.71270  -0.73730  -0.15720    37    40    27    38
 C     3.13270  -0.50940  -1.40600    38    39    37     4
 C     2.79620   0.78750  -1.74230    39    38    19     2
 C     3.04460  -1.77130   0.39080    40    37    42    29
 C     1.08920  -2.96100  -0.07190    41     9    42    36
 C     2.23570  -2.38700  -0.49550    42    40    41     4
 C    -3.49910   0.95310   1.21120    43    44    45    26
 C    -3.05020  -0.14570   1.83080    44    43    32    47
 C    -3.79270   0.89780  -0.10370    45    43    15    49
 C    -2.15020  -2.25220  -0.85010    46    52    48     7
 C    -2.84680  -1.36870   1.24200    47    44    50    48
 C    -3.12820  -1.48290  -0.17000    48    46    49    47
 C    -3.59030  -0.29830  -0.80680    49    18    45    48
 C    -1.65200  -1.88950   1.79790    50    51    33    47
 C    -0.83590  -2.71410   1.10750    51    50    52    36
 C    -1.14990  -2.91860  -0.19380    52     9    51    46
