    52
C52-C1-352                                                                      
 C     1.96430   2.35460   0.94770     1     2     4    32
 C     2.75930   1.39360   1.47140     2     1     8    12
 C    -0.17890   2.95050   0.26450     3    10     4    33
 C     0.62590   2.44220   1.28880     4     1     3     6
 C    -1.46420   1.30260   2.04780     5     9    11     6
 C    -0.02400   1.42640   2.12410     6     5     4     7
 C     0.81590   0.25930   2.41770     7     8    16     6
 C     2.19580   0.33170   2.13080     8     2    14     7
 C    -2.03130   0.01280   2.20930     9    52    15     5
 C    -1.49710   2.80270   0.27870    10     3    42    11
 C    -2.25120   2.14530   1.19870    11    10    50     5
 C     3.77660   1.01950   0.61520    12    13    26     2
 C     3.87390  -0.31050   0.78120    13    12    17    14
 C     2.95390  -0.73250   1.71020    14    22     8    13
 C    -1.19930  -1.11970   2.23600    15     9    48    16
 C     0.20830  -1.06160   2.33130    16    15     7    21
 C     3.61740  -1.13060  -0.27230    17    18    13    24
 C     2.82290  -2.15150   0.09860    18    20    17    22
 C     0.75370  -2.99070  -0.51620    19    20    30    23
 C     1.93550  -2.45810  -0.86460    20    19    18    27
 C     0.99290  -2.13180   1.70920    21    22    23    16
 C     2.32750  -1.89340   1.38500    22    14    21    18
 C     0.24540  -2.93530   0.80340    23    49    19    21
 C     3.03890  -0.60460  -1.43380    24    25    27    17
 C     2.90460   0.76020  -1.56900    25    24    26    35
 C     3.39630   1.59480  -0.55720    26    32    12    25
 C     1.97540  -1.41510  -1.81950    27    24    20    28
 C     0.75850  -0.92920  -2.39680    28    29    27    34
 C    -0.38050  -1.70340  -2.15930    29    30    28    38
 C    -0.32630  -2.76150  -1.28150    30    46    19    29
 C     1.47260   2.43670  -1.32960    31    33    32    35
 C     2.41910   2.49750  -0.36440    32    26    31     1
 C     0.21520   2.81190  -1.08720    33    31    36     3
 C     0.56420   0.49140  -2.50660    34    35    28    37
 C     1.68690   1.26980  -2.05990    35    31    25    34
 C    -0.89650   2.29990  -1.72980    36    42    33    37
 C    -0.78950   1.02860  -2.38290    37    36    34    39
 C    -1.68680  -1.20750  -2.05200    38    29    39    43
 C    -1.95770   0.17020  -2.18490    39    38    40    37
 C    -3.09270   0.61460  -1.42070    40    41    45    39
 C    -3.06130   1.83600  -0.80350    41    42    40    50
 C    -1.97700   2.55600  -0.95850    42    41    10    36
 C    -2.40430  -2.02180  -1.12700    43    46    44    38
 C    -3.31860  -1.47490  -0.28000    44    45    43    47
 C    -3.72620  -0.19220  -0.47990    45    44    51    40
 C    -1.45730  -2.85220  -0.61350    46    30    43    49
 C    -3.04290  -1.54640   1.08540    47    52    48    44
 C    -1.88630  -2.12850   1.53150    48    49    47    15
 C    -1.13530  -2.92150   0.72900    49    48    46    23
 C    -3.39760   1.71060   0.52720    50    51    41    11
 C    -3.86690   0.48300   0.72350    51    50    52    45
 C    -3.25320  -0.32490   1.60760    52    47    51     9
