    52
C52-C1-61                                                                       
 C    -0.89590   1.62060  -1.91340     1     6    41     2
 C    -1.42960   0.36460  -2.25970     2     1     3    10
 C    -2.75930   0.14310  -1.80520     3    40     4     2
 C    -3.09060  -1.07710  -1.21010     4     5    13     3
 C    -2.15680  -2.03840  -1.15200     5     4    11    15
 C     0.45960   1.85190  -1.80630     6     1     8    42
 C     2.72050   1.17530  -1.52060     7    49     8    12
 C     1.45080   0.89190  -2.06410     8     6     7     9
 C     0.97160  -0.45760  -2.23850     9     8    10    19
 C    -0.46780  -0.69380  -2.33440    10    11     2     9
 C    -0.93880  -1.92000  -1.81850    11    21     5    10
 C     3.02010   2.27700  -0.69280    12    51    44     7
 C    -3.89150  -0.80870  -0.11950    13    22     4    17
 C    -0.64580  -3.25690  -0.09110    14    18    15    21
 C    -1.86830  -2.71380   0.05350    15    14     5    16
 C    -2.15070  -1.93320   1.20520    16    17    15    26
 C    -3.22490  -1.05810   1.09450    17    24    16    13
 C     0.35590  -3.21850   0.78180    18    14    48    25
 C     1.84060  -1.47450  -1.63870    19    20    50     9
 C     1.23750  -2.59450  -1.08690    20    21    19    48
 C    -0.08600  -2.75840  -1.21890    21    11    20    14
 C    -4.27210   0.49650  -0.18760    22    23    40    13
 C    -3.89890   1.05860   0.97810    23    24    22    28
 C    -3.19890   0.16730   1.70080    24    23    17    34
 C     0.25130  -2.22180   1.71690    25    18    35    26
 C    -0.95300  -1.52710   1.94990    26    25    33    16
 C    -1.88410   1.90970   1.48230    27    29    28    34
 C    -3.03920   2.07060   0.72500    28    23    39    27
 C    -0.64510   2.40280   1.12990    29    27    30    43
 C     0.54630   1.82950   1.64090    30    32    29    37
 C     2.93860   1.53900   1.20550    31    32    38    51
 C     1.76590   2.20970   1.06860    32    31    30    44
 C    -0.82300  -0.12370   2.28930    33    34    37    26
 C    -1.97210   0.64750   2.08970    34    24    33    27
 C     1.52470  -1.65150   1.78650    35    25    36    45
 C     1.69010  -0.29290   2.07650    36    35    38    37
 C     0.48480   0.48760   2.22290    37    36    33    30
 C     2.90970   0.24360   1.63260    38    31    36    47
 C    -2.83370   2.16420  -0.63290    39    41    40    28
 C    -3.52370   1.10310  -1.14890    40    22    39     3
 C    -1.57140   2.47020  -1.02470    41    39    43     1
 C     0.66920   2.83460  -0.81720    42    44    43     6
 C    -0.54470   2.91430  -0.20850    43    42    41    29
 C     1.86340   2.82130  -0.19170    44    42    12    32
 C     2.42870  -2.30140   0.89490    45    48    46    35
 C     3.37690  -1.53150   0.28740    46    45    47    50
 C     3.90310  -0.39940   0.86490    47    52    46    38
 C     1.56900  -3.05760   0.18700    48    45    18    20
 C     3.54580   0.16860  -1.07980    49    50    52     7
 C     3.03280  -1.07720  -1.01390    50    49    19    46
 C     3.87720   1.77330   0.23430    51    52    12    31
 C     4.32970   0.55430  -0.01950    52    51    47    49
