    52
C52-C1-332                                                                      
 C     3.04920  -1.52080  -1.00840     1    28     2     3
 C     2.07790  -2.45970  -0.95720     2     1    13    31
 C     2.59750  -0.49390  -1.81400     3     1     4     7
 C     2.75850   0.86210  -1.44550     4     6     3     5
 C     3.27890   1.04770  -0.10610     5    27    18     4
 C     1.76310   1.75350  -1.85510     6    16     4    10
 C     1.37010  -0.93830  -2.37020     7     9    13     3
 C    -0.97260  -0.50260  -2.59030     8     9    12    21
 C     0.34340  -0.04210  -2.70400     9    10     8     7
 C     0.55630   1.31750  -2.47080    10     9    23     6
 C    -2.47820  -1.67830  -1.47760    11    45    12    52
 C    -1.26330  -1.79050  -2.07670    12    11    15     8
 C     1.05800  -2.20720  -1.82310    13     2    15     7
 C    -0.50620  -3.01530  -0.19590    14    50    30    15
 C    -0.25290  -2.58210  -1.54430    15    12    13    14
 C     1.40580   2.82600  -1.09160    16    19     6    17
 C     1.76080   2.90560   0.23090    17    18    24    16
 C     2.58690   1.95690   0.72920    18    17     5    25
 C     0.08580   3.06590  -1.25090    19    20    16    23
 C    -0.42680   3.31700  -0.04020    20    19    24    49
 C    -2.04330   0.35330  -2.21560    21    45    22     8
 C    -1.80500   1.67580  -1.79210    22    21    23    48
 C    -0.50920   2.16000  -2.06080    23    19    22    10
 C     0.56840   3.14420   0.85700    24    20    17    36
 C     2.14830   1.20030   1.84700    25    26    37    18
 C     2.77690   0.01480   1.74310    26    25    27    33
 C     3.57980  -0.06400   0.64260    27    28    26     5
 C     3.53440  -1.33360   0.23330    28    27     1    29
 C     2.71230  -2.03780   1.07410    29    31    28    33
 C     0.54470  -2.95320   0.72890    30    31    14    34
 C     1.84640  -2.81460   0.35020    31    30    29     2
 C     0.83410  -1.20980   2.42860    32    33    34    35
 C     2.17850  -1.18730   2.02990    33    26    29    32
 C     0.03190  -2.23950   1.83040    34    41    30    32
 C     0.15210   0.05250   2.68380    35    38    32    37
 C     0.06280   2.37680   1.87090    36    24    42    37
 C     0.83700   1.30510   2.37710    37    36    25    35
 C    -1.26520   0.04970   2.55190    38    40    44    35
 C    -3.14870  -0.63510   1.49910    39    51    43    40
 C    -2.02360  -1.06460   2.15530    40    39    41    38
 C    -1.33250  -2.15070   1.66720    41    40    34    50
 C    -1.30300   2.25690   1.64100    42    44    36    49
 C    -3.03950   0.70920   1.36740    43    44    39    47
 C    -1.97110   1.16350   2.05800    44    42    43    38
 C    -2.97220  -0.42530  -1.60730    45    46    11    21
 C    -3.66550  -0.09320  -0.51120    46    45    51    47
 C    -3.32110   1.11090   0.06400    47    46    43    48
 C    -2.45830   2.06370  -0.52840    48    47    49    22
 C    -1.60830   2.78700   0.35260    49    20    48    42
 C    -1.72180  -2.69800   0.42440    50    52    14    41
 C    -3.58980  -1.17430   0.33690    51    39    52    46
 C    -2.82330  -2.16110  -0.23420    52    51    11    50
