    52
C52-C2-348                                                                      
 C    -3.56780  -0.50850  -1.23920     1     2    28     4
 C    -3.85040   0.48590  -0.38820     2     1     3    19
 C    -3.15600   1.63060  -0.51940     3     2    22     7
 C    -2.54250  -0.40110  -2.18030     4    11     1     6
 C    -0.35170   0.63590  -2.65330     5     9     6    14
 C    -1.76400   0.76780  -2.34370     6     4     7     5
 C    -2.14880   1.81760  -1.44730     7     3    17     6
 C     1.81750   1.51960  -2.03370     8     9    45    15
 C     0.49040   1.67090  -2.20520     9     8    16     5
 C    -0.49660  -1.69600  -2.22450    10    11    37    14
 C    -1.82760  -1.54790  -2.05480    11    10    29     4
 C     2.16060  -1.82230  -1.46140    12    50    36    13
 C     1.76570  -0.76710  -2.35220    13    15    12    14
 C     0.35210  -0.65900  -2.66150    14    10    13     5
 C     2.56420   0.38980  -2.17420    15     8    52    13
 C     0.09320   2.57540  -1.21030    16    17    33     9
 C    -1.17640   2.57650  -0.80270    17    16     7    21
 C    -2.97190   1.05200   1.59520    18    20    22    19
 C    -3.64680   0.06850   0.90420    19     2    18    27
 C    -1.94430   0.71030   2.40620    20    18    25    23
 C    -1.46010   2.63350   0.56370    21    22    17    24
 C    -2.68510   2.04000   0.68200    22     3    21    18
 C    -0.74750   1.47370   2.44170    23    35    24    20
 C    -0.39250   2.45230   1.48040    24    23    21    34
 C    -1.55520  -0.64650   2.49330    25    30    20    26
 C    -2.05300  -1.65350   1.63350    26    25    27    31
 C    -3.19260  -1.24880   0.86990    27    28    19    26
 C    -3.27920  -1.60800  -0.45460    28    29    27     1
 C    -2.26450  -2.26440  -0.98890    29    28    32    11
 C    -0.24670  -0.61100   2.80520    30    35    39    25
 C    -1.00160  -2.50440   1.04110    31    32    40    26
 C    -1.17700  -2.75040  -0.35590    32    29    37    31
 C     1.17620   2.73240  -0.33790    33    45    16    34
 C     0.99700   2.50780   1.06110    34    33    24    48
 C     0.23740   0.63860   2.82050    35    30    49    23
 C     1.17480  -2.57480  -0.81450    36    37    38    12
 C    -0.09480  -2.59350  -1.22420    37    36    32    10
 C     1.44270  -2.60200   0.55170    38    41    36    40
 C     0.73030  -1.45610   2.43670    39    30    40    42
 C     0.38100  -2.42470   1.47520    40    39    38    31
 C     2.66590  -2.00010   0.64820    41    50    38    44
 C     1.93080  -0.70480   2.40390    42    44    39    49
 C     3.64200  -0.07390   0.86790    43    44    51    47
 C     2.94570  -1.02350   1.56650    44    42    43    41
 C     2.25900   2.23330  -0.97690    45    46     8    33
 C     3.28500   1.59380  -0.44740    46    45    47    52
 C     3.18210   1.24790   0.87690    47    46    43    48
 C     2.04750   1.65080   1.64720    48    49    47    34
 C     1.54410   0.65510   2.50740    49    35    48    42
 C     3.18980  -1.63400  -0.54950    50    51    41    12
 C     3.90430  -0.49320  -0.42650    51    52    50    43
 C     3.61370   0.51250  -1.24780    52    51    46    15
