    52
C52-C2-22                                                                       
 C     1.45690   2.21770   1.08550     1     2    37     3
 C     2.77510   1.93320   1.04820     2     8    26     1
 C     0.70320   2.49390  -0.05880     3     4     1     9
 C    -0.68640   2.50070   0.04740     4     6     3    34
 C    -2.76440   1.96700  -1.03590     5    48    35     6
 C    -1.44450   2.24160  -1.09060     6     5     4    13
 C     4.46230   0.86270   0.08530     7    11     8    25
 C     3.54240   1.88440  -0.05480     8     2     7    10
 C     1.38130   1.99290  -1.25050     9    10    14     3
 C     2.75880   1.70350  -1.18370    10    12     8     9
 C     4.28440   0.09300  -0.99100    11     7    16    12
 C     3.27420   0.56980  -1.77620    12    11    19    10
 C    -0.83510   1.37660  -2.00180    13    14     6    30
 C     0.52120   1.17350  -2.06690    14    13    18     9
 C     2.75660  -1.48430  -1.41200    15    17    16    19
 C     3.79180  -1.10880  -0.58590    16    11    15    24
 C     1.77410  -2.27990  -0.97650    17    15    20    22
 C     0.99120  -0.14370  -2.41300    18    19    14    21
 C     2.35580  -0.37300  -2.15710    19    12    15    18
 C     0.49140  -2.26100  -1.51020    20    32    17    21
 C    -0.01750  -1.17860  -2.25770    21    20    31    18
 C     1.63270  -2.45700   0.40860    22    27    23    17
 C     2.34550  -1.65860   1.29900    23    22    24    28
 C     3.54630  -1.08040   0.79880    24    25    16    23
 C     4.00470   0.16360   1.19760    25    26    24     7
 C     3.03760   0.86170   1.82320    26    25     2    29
 C     0.33630  -2.72480   0.56590    27    22    32    40
 C     1.43520  -0.90870   2.17510    28    29    41    23
 C     1.83370   0.42910   2.29390    29    26    37    28
 C    -1.82340   0.41440  -2.25030    30    48    31    13
 C    -1.43740  -0.92590  -2.14900    31    30    21    51
 C    -0.35050  -2.74830  -0.57900    32    52    27    20
 C    -2.73510   1.71090   1.14610    33    38    35    34
 C    -1.36010   1.99680   1.23570    34    33    36     4
 C    -3.56460   1.93000   0.04780    35     5    43    33
 C    -0.51030   1.17780   2.05590    36    37    34    39
 C     0.84510   1.37750   2.01710    37    36     1    29
 C    -3.24810   0.55720   1.68770    38    42    44    33
 C    -0.98180  -0.14300   2.37120    39    42    36    41
 C    -0.50000  -2.26720   1.51390    40    27    45    41
 C     0.01680  -1.18530   2.24980    41    40    28    39
 C    -2.33580  -0.38810   2.07760    42    38    47    39
 C    -4.47090   0.89620  -0.06470    43    44    35    49
 C    -4.30890   0.06680   0.97200    44    43    46    38
 C    -1.79150  -2.31650   0.99060    45    47    40    52
 C    -3.84980  -1.15690   0.60550    46    44    47    50
 C    -2.79790  -1.53250   1.41520    47    45    46    42
 C    -3.01160   0.86230  -1.75960    48     5    49    30
 C    -3.97620   0.15820  -1.13660    49    48    50    43
 C    -3.55530  -1.10780  -0.77370    50    49    46    51
 C    -2.35420  -1.68350  -1.27610    51    52    50    31
 C    -1.64450  -2.49650  -0.39970    52    32    51    45
