    52
C52-C1-30                                                                       
 C     2.70860  -2.02870   1.03500     1     2     3    32
 C     3.79810  -1.63130   0.36600     2     1     8    27
 C     1.75060  -2.50730   0.18290     3     6     1    10
 C    -1.39120  -1.62470   1.77870     4     5    37    50
 C    -0.01960  -1.84610   1.68030     5     4     6    33
 C     0.42650  -2.56390   0.51820     6     3     7     5
 C    -0.51760  -2.53860  -0.50480     7    51     6    11
 C     3.44840  -1.61810  -0.93390     8     2     9    10
 C     3.71720  -0.36890  -1.36230     9     8    14    29
 C     2.18970  -2.12070  -1.10650    10     8    12     3
 C    -0.11540  -1.87120  -1.66870    11    21    12     7
 C     1.19550  -1.50500  -1.89260    12    11    10    13
 C     1.43030  -0.13990  -2.29920    13    14    12    23
 C     2.71140   0.36340  -1.96310    14    15     9    13
 C     2.81150   1.59760  -1.40650    15    25    14    16
 C     3.75130   1.57730  -0.39090    16    17    29    15
 C     3.02320   2.04300   0.65350    17    18    16    30
 C     1.85550   2.56130   0.21030    18    42    17    25
 C    -2.00470   2.00190  -1.15470    19    20    43    26
 C    -0.73230   2.35580  -0.77990    20    19    24    41
 C    -1.24160  -1.16850  -2.03190    21    11    46    22
 C    -1.07950   0.19670  -2.35990    22    26    21    23
 C     0.24540   0.71370  -2.29990    23    22    13    24
 C     0.40100   1.97080  -1.56990    24    25    20    23
 C     1.66860   2.26830  -1.11330    25    15    18    24
 C    -2.22390   0.93080  -2.02640    26    48    19    22
 C     4.20940  -0.41830   0.80360    27     2    29    28
 C     3.24050  -0.02790   1.75260    28    30    27    32
 C     4.33920   0.35570  -0.34060    29    16    27     9
 C     2.66540   1.22570   1.70470    30    17    28    31
 C     1.30320   1.42170   1.95540    31    30    42    34
 C     2.29350  -1.06230   1.91800    32     1    33    28
 C     0.92250  -0.89710   2.21200    33    32     5    34
 C     0.38680   0.43550   2.36020    34    31    35    33
 C    -1.00200   0.68310   2.23380    35    37    34    39
 C    -3.17940  -0.32720   1.77270    36    40    37    49
 C    -1.89510  -0.39770   2.20590    37    36     4    35
 C    -2.82200   1.74790   0.97140    38    43    40    39
 C    -1.50130   1.80250   1.44660    39    38    41    35
 C    -3.75960   0.78050   1.27800    40    36    44    38
 C    -0.49630   2.41860   0.65850    41    42    39    20
 C     0.81220   2.36760   1.04650    42    18    41    31
 C    -3.11440   2.01740  -0.34620    43    45    19    38
 C    -4.58700   0.44020   0.23300    44    45    40    52
 C    -4.11580   1.21030  -0.77730    45    48    44    43
 C    -2.38930  -1.60450  -1.36030    46    47    51    21
 C    -3.54980  -0.86260  -1.22020    47    48    46    52
 C    -3.47280   0.43070  -1.66990    48    45    47    26
 C    -3.54870  -1.39780   1.01560    49    36    50    52
 C    -2.39380  -2.13170   0.92550    50    49    51     4
 C    -1.86170  -2.36760  -0.31660    51     7    50    46
 C    -4.29240  -0.88700  -0.02000    52    49    44    47
