    52
C52-C1-404                                                                      
 C    -3.47910  -0.33560  -0.41650     1    33     2     4
 C    -3.39750   1.01710  -0.19040     2     3     1    19
 C    -2.65410   1.76190  -1.06490     3     9     2     7
 C    -2.78740  -0.97180  -1.42990     4     1    35     6
 C    -0.77270  -0.81330  -2.71300     5     8     6    13
 C    -1.98290  -0.21100  -2.33280     6     5     7     4
 C    -1.92810   1.18320  -2.13210     7     6     3    15
 C    -0.44530  -2.04540  -2.23120     8    52    36     5
 C    -1.81070   2.68500  -0.51440     9    10     3    17
 C    -0.71240   2.79720  -1.25370    10     9    12    15
 C     1.57830   2.63870  -0.86110    11    23    12    16
 C     0.35570   3.06960  -0.47330    12    10    11    20
 C     0.46200  -0.11660  -2.82990    13    14    46     5
 C     0.52220   1.25600  -2.57910    14    13    15    16
 C    -0.69850   1.87130  -2.26640    15    10    14     7
 C     1.70070   1.69190  -1.91390    16    49    11    14
 C    -1.46170   2.74120   0.82060    17    18     9    20
 C    -2.08540   1.86360   1.65460    18    17    19    28
 C    -3.13940   1.11030   1.17380    19    25    18     2
 C    -0.08300   2.92310   0.86720    20    17    12    21
 C     0.75850   2.22190   1.78040    21    22    20    27
 C     2.09480   2.05350   1.37080    22    41    23    21
 C     2.49570   2.31320   0.05570    23    11    45    22
 C    -1.95400  -0.21190   2.43780    24    25    26    28
 C    -3.10880  -0.12730   1.70020    25    19    33    24
 C    -1.20180  -1.36500   2.33210    26    24    29    31
 C     0.13030   1.13770   2.53430    27    28    30    21
 C    -1.28710   1.02490   2.45250    28    24    18    27
 C     0.17490  -1.31690   2.48140    29    26    40    30
 C     0.89810  -0.09140   2.68670    30    42    29    27
 C    -1.54450  -2.36780   1.39310    31    34    32    26
 C    -2.61280  -2.13470   0.51760    32    33    35    31
 C    -3.38150  -1.04420   0.74220    33    32    25     1
 C    -0.33450  -2.90460   0.97890    34    31    40    37
 C    -2.31750  -2.18640  -0.84880    35    36    32     4
 C    -1.11960  -2.71030  -1.25480    36     8    35    37
 C    -0.11660  -3.15560  -0.38190    37    34    51    36
 C     2.73630  -1.19220   1.55680    38    39    44    42
 C     1.98110  -2.24280   1.19490    39    38    40    50
 C     0.71650  -2.37040   1.71090    40    39    34    29
 C     2.84460   0.95950   1.68080    41    22    42    43
 C     2.23590  -0.10970   2.26660    42    41    38    30
 C     3.65920   0.58100   0.63920    43    45    44    41
 C     3.50960  -0.74670   0.52680    44    43    38    47
 C     3.34120   1.36330  -0.39700    45    43    23    49
 C     1.51170  -0.97950  -2.41130    46    52    48    13
 C     3.04300  -1.38170  -0.60720    47    44    50    48
 C     2.65920  -0.55040  -1.72970    48    46    49    47
 C     2.78980   0.84920  -1.56250    49    45    48    16
 C     2.20370  -2.43860  -0.17860    50    51    39    47
 C     1.13740  -2.85220  -0.92900    51    52    50    37
 C     0.87480  -2.13730  -2.04920    52     8    51    46
