    52
C52-C1-173                                                                      
 C    -2.39760   1.97930  -1.13990     1    26     2     4
 C    -2.76730   0.80150  -1.76940     2     3     1    15
 C    -3.65270  -0.02940  -1.11040     3     7    21     2
 C    -1.06750   2.39030  -1.19380     4     1     5    39
 C    -0.08060   1.77630  -1.98250     5     6     4    14
 C     1.25090   2.02200  -1.62500     6    50     5    37
 C    -3.08950  -1.25880  -1.19620     7     3     8    10
 C    -3.06890  -1.83250   0.05030     8     9    17     7
 C    -1.96410  -2.55630   0.35380     9     8    13    19
 C    -1.97110  -1.29040  -2.00580    10     7    12    15
 C     0.39730  -1.75020  -2.14420    11    16    46    12
 C    -0.90690  -2.16060  -1.77370    12    10    13    11
 C    -0.97680  -2.91390  -0.57630    13    20     9    12
 C    -0.42250   0.50840  -2.56330    14    15    16     5
 C    -1.74040   0.05420  -2.37110    15     2    14    10
 C     0.63520  -0.43100  -2.57800    16    51    11    14
 C    -3.54570  -0.85720   0.88310    17     8    21    24
 C     0.02020  -2.60130   1.30860    18    30    19    20
 C    -1.23840  -2.19210   1.51440    19    18    23     9
 C     0.19390  -3.11370   0.07140    20    47    18    13
 C    -4.07110   0.21410   0.17630    21    22     3    17
 C    -3.63050   1.32440   0.80130    22    21    26    25
 C    -1.48480  -0.99200   2.21340    23    24    19    32
 C    -2.70830  -0.38600   1.90150    24    25    17    23
 C    -2.79970   0.96730   1.83430    25    24    34    22
 C    -2.87370   2.23120   0.13200    26    27    22     1
 C    -1.78730   2.57530   0.84940    27    39    26    34
 C     2.06020   1.38150   1.90240    28    40    35    29
 C     0.77560   1.93620   1.77510    29    28    33    38
 C     1.15130  -2.01870   1.72350    30    18    42    31
 C     1.04620  -0.76410   2.36840    31    35    30    32
 C    -0.27910  -0.19700   2.52010    32    31    33    23
 C    -0.39320   1.24910   2.28680    33    34    29    32
 C    -1.66020   1.72380   1.92450    34    25    27    33
 C     2.18790   0.01410   2.19000    35    31    44    28
 C     2.83400   2.19150  -0.08490    36    40    37    49
 C     1.58890   2.62100  -0.38580    37    36    38     6
 C     0.57330   2.74360   0.56370    38    39    37    29
 C    -0.70600   2.85440   0.09710    39    27    38     4
 C     3.16040   1.68350   1.11760    40    41    36    28
 C     3.94100   0.61550   0.89340    41    40    44    52
 C     2.14290  -2.30490   0.76250    42    43    47    30
 C     3.19200  -1.44960   0.61980    43    42    44    48
 C     3.33390  -0.41390   1.50410    44    41    43    35
 C     2.56970  -1.19180  -1.63070    45    46    51    48
 C     1.58870  -2.16120  -1.51020    46    47    45    11
 C     1.45540  -2.84810  -0.32270    47    20    46    42
 C     3.54490  -0.92310  -0.64280    48    52    43    45
 C     3.33390   1.36290  -1.05360    49    50    52    36
 C     2.31560   1.17040  -1.93700    50    49    51     6
 C     1.95840  -0.10990  -2.29620    51    50    16    45
 C     4.03050   0.35920  -0.44200    52    41    49    48
