    52
C52-Cs-102                                                                      
 C    -3.40090   1.13540   1.09750     1     2    29     4
 C    -3.07440   1.88840  -0.00540     2     3    16     1
 C    -1.90060   2.55570   0.01730     3     2     7    18
 C    -2.39380   0.87150   2.02300     4    11     1     6
 C     0.07880   0.81230   2.40950     5     9    14     6
 C    -1.16280   1.53150   2.07980     6     4     7     5
 C    -1.02950   2.55800   1.12490     7    20     6     3
 C     2.53290   0.54450   1.91740     8    21    15     9
 C     1.37980   1.34220   2.02480     9     8    19     5
 C    -1.29650  -1.19330   2.21650    10    11    32    14
 C    -2.44550  -0.47670   2.13560    11     4    10    27
 C     0.85800  -2.41240   1.09470    12    33    50    13
 C     1.14500  -1.40360   2.06730    13    15    12    14
 C    -0.00990  -0.65070   2.45510    14    10    13     5
 C     2.42250  -0.85630   1.94710    15    13    52     8
 C    -3.40520   1.13940  -1.09980    16     2    22    25
 C     0.18150   2.77620  -0.64270    17    18    38    20
 C    -1.03660   2.49120  -1.09920    18    17    24     3
 C     1.38650   2.42060   1.10760    19    20    48     9
 C     0.19390   2.84420   0.69600    20     7    19    17
 C     3.63640   0.80270   1.08870    21    49    47     8
 C    -4.04380  -0.00300  -0.65830    22    29    23    16
 C    -3.36450  -0.99070  -1.31570    23    26    22    30
 C    -1.16780   1.50820  -2.10010    24    25    18    40
 C    -2.41270   0.86930  -2.04580    25    26    16    24
 C    -2.44300  -0.47760  -2.17250    26    25    42    23
 C    -3.41000  -1.03320   1.34380    27    29    11    28
 C    -2.77550  -2.07950   0.71300    28    27    32    30
 C    -4.05840  -0.01850   0.70600    29    27    22     1
 C    -2.74370  -2.05220  -0.69070    30    23    31    28
 C    -1.52320  -2.23790  -1.34300    31    34    30    42
 C    -1.53370  -2.26210   1.33770    32    33    28    10
 C    -0.41970  -2.68820   0.68730    33    32    12    34
 C    -0.41010  -2.68510  -0.70170    34    31    35    33
 C     0.86510  -2.41380  -1.10450    35    34    50    37
 C     2.40570  -0.85180  -1.94560    36    44    37    43
 C     1.13520  -1.40850  -2.08650    37    36    35    41
 C     1.36510   2.35740  -1.09300    38    17    48    39
 C     1.38030   1.31880  -2.05270    39    43    38    40
 C     0.07740   0.79950  -2.44160    40    39    41    24
 C    -0.01910  -0.66610  -2.50170    41    42    37    40
 C    -1.30420  -1.20490  -2.27070    42    26    31    41
 C     2.53950   0.54130  -1.94310    43    36    39    45
 C     3.39310  -1.30620  -1.07880    44    46    51    36
 C     3.61500   0.81590  -1.08690    45    46    47    43
 C     4.21170  -0.31760  -0.64990    46    49    44    45
 C     3.35530   1.61710   0.00110    47    48    45    21
 C     2.25200   2.36840   0.00530    48    47    19    38
 C     4.24330  -0.34240   0.69910    49    46    52    21
 C     1.72020  -2.51650  -0.00180    50    51    12    35
 C     2.96810  -2.01490   0.01920    51    50    52    44
 C     3.44090  -1.34290   1.12030    52    49    51    15
