    52
C52-C2-413                                                                      
 C     1.81550   1.52060  -1.86240     1     6     2    38
 C     1.12830   0.46510  -2.49710     2     1     3     7
 C     1.73640  -0.78750  -2.27230     3    37     4     2
 C     0.96940  -1.91890  -2.01120     4     5     3    11
 C    -0.36610  -1.87250  -2.16800     5     4    12     8
 C     1.10690   2.58220  -1.45220     6     1    39    20
 C    -0.31800   0.55870  -2.59780     7     8     2    21
 C    -1.00210  -0.67040  -2.54200     8    22     7     5
 C     1.21770  -2.57340   1.33150     9    24    16    10
 C     0.70300  -3.05400   0.08140    10    13    11     9
 C     1.57530  -2.64860  -0.98070    11    23     4    10
 C    -1.23810  -2.58530  -1.34590    12    17     5    13
 C    -0.71300  -3.05140  -0.09520    13    10    14    12
 C    -1.55560  -2.63250   0.98250    14    19    15    13
 C    -0.96950  -1.91560   2.03230    15    16    31    14
 C     0.36580  -1.87080   2.18650    16    15     9    29
 C    -2.44830  -1.95250  -1.44920    17    18    22    12
 C    -3.29240  -1.75670  -0.43170    18    17    19    47
 C    -2.78800  -2.04040   0.78020    19    18    45    14
 C    -0.24630   2.75280  -1.54270    20     6    48    21
 C    -1.06070   1.71750  -2.06340    21    20     7    51
 C    -2.27350  -0.77610  -2.09780    22     8    17    52
 C     2.80540  -2.06260  -0.77070    23    25    37    11
 C     2.43740  -1.94540   1.42610    24    25    30     9
 C     3.31120  -1.74060   0.43410    25    24    23    27
 C     2.95890   0.22020   1.49900    26    30    28    27
 C     3.63780  -0.40500   0.44220    27    36    25    26
 C     2.36100   1.48550   1.41900    28    26    40    34
 C     1.00040  -0.67620   2.57230    29    30    16    33
 C     2.25710  -0.78580   2.09600    30    29    24    26
 C    -1.74210  -0.78800   2.29720    31    45    15    32
 C    -1.12100   0.46260   2.52360    32    42    31    33
 C     0.32390   0.55700   2.62600    33    29    32    34
 C     1.05550   1.70580   2.06690    34    35    33    28
 C     0.24930   2.73330   1.52650    35    43    41    34
 C     3.42370   0.10290  -0.81000    36    38    37    27
 C     2.87040  -0.92450  -1.52070    37    23    36     3
 C     2.88050   1.33860  -0.94220    38    36    40     1
 C     1.61320   3.02990  -0.26610    39    41    40     6
 C     2.54990   2.16050   0.15830    40    39    38    28
 C     0.54700   3.45500   0.39110    41    39    48    35
 C    -1.80600   1.50790   1.87010    42    43    32    46
 C    -1.10610   2.56480   1.43800    43    42    49    35
 C    -3.41020   0.10060   0.79180    44    46    45    47
 C    -2.86850  -0.91760   1.52980    45    19    31    44
 C    -2.86600   1.33440   0.94340    46    44    50    42
 C    -3.61730  -0.41050  -0.46590    47    44    18    52
 C    -0.56760   3.47080  -0.40480    48    49    41    20
 C    -1.61740   3.03660   0.26570    49    48    50    43
 C    -2.55320   2.16150  -0.16430    50    49    46    51
 C    -2.37820   1.50030  -1.43240    51    52    50    21
 C    -2.97760   0.24110  -1.52130    52    22    47    51
