    52
C52-C1-384                                                                      
 C     1.49800   2.99110  -0.53120     1     3     5     2
 C     2.30560   2.12300  -1.21310     2    34     1    10
 C     0.20640   3.11200  -0.89030     3     1     6     8
 C     0.81030   2.49820   1.67080     4     5    37     7
 C     1.82440   2.79650   0.77920     5    32     1     4
 C    -0.83470   3.18260   0.05420     6    17     3     7
 C    -0.56390   2.68900   1.38350     7     4     6    19
 C    -0.27290   2.29380  -1.94690     8    13     9     3
 C     0.45840   1.23040  -2.51240     9     8    10    14
 C     1.81790   1.20710  -2.11770    10     2    11     9
 C     2.50220   0.02680  -1.84610    11    12    10    23
 C     1.89380  -1.16730  -2.09780    12    11    24    15
 C    -1.58330   2.15350  -1.70250    13     8    17    29
 C    -0.23580  -0.03140  -2.71440    14    15     9    30
 C     0.56130  -1.19260  -2.57710    15    31    14    12
 C    -2.93730   2.06250  -0.01590    16    17    20    45
 C    -1.97060   2.78480  -0.55870    17    16     6    13
 C    -0.98900   0.59610   2.58190    18    38    50    19
 C    -1.54010   1.75310   1.92430    19    20    18     7
 C    -2.75990   1.50530   1.22970    20    16    52    19
 C     3.17270  -0.77060   0.27700    21    22    23    35
 C     2.59060  -2.00040   0.01310    22    21    24    26
 C     3.29630   0.22490  -0.70310    23    34    21    11
 C     2.06960  -2.27610  -1.25960    24    25    12    22
 C     0.94470  -3.01330  -1.37070    25    28    24    31
 C     1.81980  -2.38760   1.12680    26    36    27    22
 C     0.65000  -3.13180   0.94050    27    28    26    41
 C     0.26780  -3.50940  -0.31840    28    25    44    27
 C    -2.30350   1.01030  -1.90000    29    13    45    30
 C    -1.65820  -0.17090  -2.33940    30    29    48    14
 C     0.03320  -2.36990  -2.14100    31    25    15    49
 C     2.86110   1.93150   0.89550    32    34     5    33
 C     2.54240   0.99840   1.82910    33    32    35    37
 C     3.19070   1.53450  -0.35750    34    32    23     2
 C     2.74760  -0.35820   1.56690    35    36    33    21
 C     1.86880  -1.32760   2.02430    36    35    26    39
 C     1.28870   1.37140   2.35430    37    38     4    33
 C     0.38630   0.41820   2.75730    38    37    39    18
 C     0.68470  -0.93990   2.65500    39    42    38    36
 C    -1.57570  -2.81750   0.66970    40    44    43    41
 C    -0.51840  -2.71130   1.59390    41    42    27    40
 C    -0.50220  -1.61400   2.44900    42    39    50    41
 C    -2.57220  -1.87620   0.66950    43    40    51    47
 C    -1.04650  -3.24740  -0.50550    44    28    40    49
 C    -3.23690   1.04340  -0.89100    45    46    29    16
 C    -3.45560  -0.05640  -0.20070    46    45    52    47
 C    -2.95690  -1.26930  -0.56250    47    46    43    48
 C    -2.12010  -1.42710  -1.72150    48    49    47    30
 C    -1.24070  -2.49900  -1.66470    49    31    48    44
 C    -1.54730  -0.70020   2.45590    50    51    42    18
 C    -2.65090  -0.87650   1.64930    51    52    50    43
 C    -3.22280   0.20690   1.11260    52    51    46    20
