    52
C52-C1-429                                                                      
 C     1.24450   2.95620   0.32050     1    35     2     4
 C     2.32700   2.34850  -0.20190     2     1     3    19
 C     3.01320   1.42290   0.56270     3     9     2     7
 C     0.66210   2.65530   1.53160     4     1    37     6
 C     0.30020   0.72710   2.87110     5     8     6    13
 C     1.23250   1.58770   2.27630     6     5     7     4
 C     2.40140   0.97700   1.76860     7     6     3    15
 C    -1.04740   0.97240   2.72490     8    52    38     5
 C     3.52610   0.32690  -0.03550     9    10     3    17
 C     3.28340  -0.78090   0.69020    10     9    12    15
 C     1.88180  -2.62310   0.25360    11    12    29    16
 C     2.89290  -1.80210  -0.14200    12    11    10    20
 C     0.42130  -0.68190   2.88470    13     5    14    49
 C     1.56300  -1.29040   2.30550    14    15    13    16
 C     2.57390  -0.43690   1.82800    15    10    14     7
 C     1.28080  -2.44810   1.52600    16    51    11    14
 C     3.21580   0.05660  -1.33240    17    20    18     9
 C     2.36000   0.82620  -2.05650    18    17    19    24
 C     1.93930   2.03060  -1.53750    19    18    22     2
 C     2.81810  -1.23240  -1.39290    20    17    31    12
 C    -1.67410   1.84780  -1.92540    21    28    33    23
 C     0.63290   2.46220  -1.75310    22    35    19    23
 C    -0.33980   1.69720  -2.43350    23    22    21    26
 C     1.40430  -0.03120  -2.64210    24    18    26    31
 C    -0.89330  -0.67220  -2.78550    25    27    26    32
 C     0.06690   0.36480  -2.87540    26    24    25    23
 C    -2.16820  -0.39390  -2.40220    27    28    47    25
 C    -2.53500   0.80550  -1.98120    28    27    40    21
 C     0.84510  -2.95690  -0.64400    29    48    11    30
 C     0.70910  -2.27890  -1.89020    30    31    32    29
 C     1.71410  -1.35770  -2.20170    31    20    30    24
 C    -0.61360  -1.94890  -2.23830    32    30    25    46
 C    -1.98280   2.48210  -0.69500    33    34    36    21
 C    -0.94700   3.07180  -0.01940    34    35    33    37
 C     0.26830   3.11620  -0.59310    35    34     1    22
 C    -2.92220   1.66850  -0.01640    36    40    39    33
 C    -0.73500   2.79890   1.33730    37    38    34     4
 C    -1.60860   1.94120   1.95750    38     8    37    39
 C    -2.69630   1.33940   1.30870    39    36    38    44
 C    -3.26470   0.64960  -0.85360    40    28    36    41
 C    -3.32080  -0.69890  -0.51600    41    40    47    43
 C    -2.11460  -2.21020   0.93320    42    50    45    43
 C    -2.99860  -1.08270   0.79750    43    41    44    42
 C    -2.74710  -0.02470   1.71230    44    52    43    39
 C    -1.53050  -2.82650  -0.21530    45    48    46    42
 C    -1.75560  -2.30100  -1.45920    46    47    45    32
 C    -2.67400  -1.32860  -1.57720    47    46    27    41
 C    -0.26460  -3.17220   0.12080    48    51    45    29
 C    -0.88930  -1.21650   2.74540    49    52    50    13
 C    -1.10870  -2.29000   1.93440    50    51    49    42
 C    -0.01510  -2.87450   1.39980    51    48    50    16
 C    -1.73290  -0.16810   2.62920    52     8    49    44
