    52
C52-C1-387                                                                      
 C     3.03550   1.00390  -1.28020     1    13     3    29
 C     1.64690   2.78060  -0.75030     2     5     3    38
 C     2.79880   2.10930  -0.51440     3     2     1     7
 C    -0.28520   3.12580   0.26390     4     5    39    10
 C     1.04580   3.15400   0.39850     5     8     4     2
 C    -2.71080   2.15270  -0.51850     6    52    40     9
 C     2.84640   1.98350   0.87430     7     8    11     3
 C     1.71630   2.54010   1.36690     8     5     7    25
 C    -2.37320   2.16410   0.83280     9    26    10     6
 C    -1.09280   2.49360   1.24660    10     9     4    24
 C     3.04700   0.76950   1.45110    11     7    12    17
 C     3.62550  -0.22320   0.69490    12    15    11    13
 C     3.63010  -0.08050  -0.70160    13    28     1    12
 C     1.40950  -2.71700   0.94960    14    23    16    30
 C     3.18760  -1.49620   0.89660    15    12    27    16
 C     2.07310  -1.77830   1.67000    16    14    15    21
 C     1.86030   0.50310   2.20950    17    25    21    11
 C    -2.36030   0.16220   2.00340    18    48    26    19
 C    -1.00250   0.28290   2.38340    19    18    24    20
 C    -0.15470  -0.91960   2.35890    20    21    22    19
 C     1.29080  -0.78580   2.30030    21    17    16    20
 C    -0.76220  -2.09610   1.71810    22    49    23    20
 C     0.08750  -2.85280   0.89940    23    14    22    45
 C    -0.37520   1.56930   2.14040    24    25    19    10
 C     1.03130   1.63440   2.13410    25     8    17    24
 C    -3.07760   1.10990   1.30820    26     9    18    50
 C     3.07080  -2.14480  -0.31730    27    30    28    15
 C     3.18350  -1.21520  -1.27010    28    27    13    33
 C     2.00810   0.48870  -2.12470    29    33    37     1
 C     1.96340  -2.87320  -0.28080    30    27    14    31
 C     0.91650  -2.79310  -1.16040    31    30    45    32
 C     0.90200  -1.68930  -2.08370    32    33    31    35
 C     2.08840  -0.91080  -2.07810    33    28    29    32
 C    -1.54640  -1.67330  -1.79340    34    43    47    35
 C    -0.36790  -1.05340  -2.32950    35    34    32    36
 C    -0.43270   0.39390  -2.47890    36    41    37    35
 C     0.77640   1.16340  -2.30720    37    29    38    36
 C     0.66430   2.40640  -1.62780    38     2    39    37
 C    -0.54180   2.81170  -1.08900    39    40    38     4
 C    -1.69020   2.21380  -1.41440    40    39     6    41
 C    -1.67900   1.00480  -2.11260    41    44    40    36
 C    -3.36090  -1.60030  -0.41220    42    46    51    43
 C    -2.75210  -1.00710  -1.52390    43    44    42    34
 C    -2.84040   0.35100  -1.69670    44    43    41    52
 C    -0.24070  -3.08390  -0.46090    45    47    31    23
 C    -2.45730  -2.48980   0.02990    46    42    47    49
 C    -1.46170  -2.71090  -0.84940    47    45    46    34
 C    -2.89780  -1.00850   1.54340    48    49    18    51
 C    -2.08760  -2.05580   1.30650    49    48    22    46
 C    -3.95910   0.55070   0.39790    50    51    52    26
 C    -3.84830  -0.77810   0.56730    51    50    42    48
 C    -3.54910   1.11660  -0.76670    52     6    50    44
