    52
C52-C2-346                                                                      
 C    -0.41100   0.65010   2.68750     1     2     4    28
 C    -1.10040   1.69720   2.15870     2     3     1    13
 C    -2.37140   1.50520   1.75490     3     7     2    27
 C     0.96350   0.59240   2.58410     4     1    38     5
 C     1.74720   1.56750   1.88170     5     6     4    12
 C     2.99430   1.10910   1.37620     6    39    51     5
 C    -2.57220   2.18480   0.61160     7     8     3     9
 C    -3.42760   1.47730  -0.12170     8     7    15    21
 C    -1.37770   2.70810   0.21290     9     7    10    13
 C    -0.94250   2.49110  -1.10980    10    11     9    20
 C     0.44780   2.53390  -1.27210    11    49    10    14
 C     0.94480   2.49560   1.09230    12    13    14     5
 C    -0.43800   2.53750   1.26430    13    12     2     9
 C     1.39550   2.72360  -0.22700    14    52    12    11
 C    -3.85250   0.38500   0.60370    15    16     8    27
 C    -3.86300  -0.65470  -0.25070    16    15    23    17
 C    -3.34590  -0.21420  -1.45550    17    19    16    21
 C    -1.31260  -0.74130  -2.52650    18    19    22    33
 C    -2.47890  -1.14360  -1.94490    19    17    18    24
 C    -1.76010   1.58100  -1.89990    20    21    22    10
 C    -3.00240   1.12720  -1.38730    21     8    17    20
 C    -0.96450   0.61130  -2.59660    22    50    18    20
 C    -3.17050  -1.77860   0.04180    23    16    24    25
 C    -2.40530  -2.14290  -1.01700    24    23    35    19
 C    -2.36560  -1.90770   1.15340    25    23    29    26
 C    -2.28720  -0.83110   2.07570    26    28    25    27
 C    -3.06920   0.31150   1.75940    27     3    15    26
 C    -0.98400  -0.63510   2.59430    28    32     1    26
 C    -1.19120  -2.59160   0.74980    29    31    25    35
 C     1.20880  -2.67030   0.64660    30    40    31    36
 C     0.03440  -2.47450   1.39560    31    29    30    32
 C     0.11900  -1.46270   2.38780    32    28    38    31
 C    -0.12050  -1.46400  -2.35510    33    44    18    34
 C    -0.03590  -2.50990  -1.39300    34    36    35    33
 C    -1.21850  -2.70080  -0.66420    35    24    34    29
 C     1.19720  -2.61600  -0.76860    36    34    47    30
 C     2.47460  -1.14870   1.95850    37    38    40    39
 C     1.31740  -0.76060   2.55700    38    37     4    32
 C     3.34610  -0.22910   1.44720    39    37    41     6
 C     2.40330  -2.12150   1.00600    40    43    30    37
 C     3.87340  -0.65780   0.24940    41    42    43    39
 C     3.83810   0.39910  -0.57340    42    41    51    45
 C     3.18290  -1.79140  -0.04770    43    40    41    47
 C     0.97160  -0.61530  -2.57260    44    33    50    46
 C     3.04160   0.31190  -1.72520    45    48    42    46
 C     2.27050  -0.84140  -2.04830    46    47    44    45
 C     2.37420  -1.93380  -1.15580    47    43    46    36
 C     2.37380   1.52370  -1.75350    48    49    52    45
 C     1.10880   1.70630  -2.18260    49    48    50    11
 C     0.40600   0.67130  -2.70350    50    49    22    44
 C     3.43390   1.51670   0.12650    51    52    42     6
 C     2.59800   2.22380  -0.62120    52    51    48    14
