    52
C52-C1-115                                                                      
 C    -1.86760   2.48670  -0.25150     1    43     2    45
 C    -0.91020   2.34740   0.76070     2     8     1     3
 C    -1.31560   1.43650   1.82550     3     4     7     2
 C    -2.64600   0.98550   1.78670     4     5    44     3
 C    -2.86310  -0.35330   1.94170     5     4    17    14
 C     1.04960   0.95790   2.12830     6     7    10    28
 C    -0.25660   0.56610   2.27550     7     6    16     3
 C     0.44470   2.46840   0.43010     8    10     2    12
 C     2.71120   1.90980   1.06210     9    10    13    49
 C     1.40660   2.04270   1.33270    10     9     8     6
 C     2.26840   1.94460  -1.10580    11    13    42    12
 C     0.90990   2.25770  -0.93440    12    11    36     8
 C     3.27240   2.08050  -0.15180    13     9    52    11
 C    -3.88940  -0.80980   1.14870    14    15    21     5
 C    -3.30620  -1.89010   0.56630    15    14    18    22
 C    -0.48880  -0.85420   2.29170    16    17     7    30
 C    -1.81250  -1.22040   2.05980    17     5    18    16
 C    -2.15900  -2.24500   1.21560    18    32    15    17
 C    -4.14790   0.27140  -0.90830    19    35    21    20
 C    -3.27320  -0.68060  -1.47990    20    22    38    19
 C    -4.33790   0.28050   0.46710    21    14    19    44
 C    -2.88830  -1.78830  -0.74600    22    15    20    23
 C    -1.58680  -2.26990  -0.84500    23    22    24    32
 C    -0.61680  -1.76220  -1.72860    24    25    23    37
 C     0.69760  -2.06870  -1.49740    25    24    39    27
 C     2.39340  -2.27560  -0.11480    26    27    46    33
 C     1.09900  -2.60330  -0.24960    27    26    31    25
 C     2.17990   0.13030   2.14270    28    49     6    29
 C     1.98110  -1.23170   1.86140    29    28    33    30
 C     0.61160  -1.68580   1.84030    30    29    16    31
 C     0.18490  -2.58980   0.77660    31    27    32    30
 C    -1.14690  -2.67060   0.44070    32    18    31    23
 C     2.99200  -1.70610   0.97370    33    26    51    29
 C    -2.47790   1.27980  -1.95500    34    35    38    45
 C    -3.57120   1.45370  -1.22650    35    34    43    19
 C    -0.09170   1.70310  -1.76240    36    45    12    41
 C    -0.90730  -0.49870  -2.32770    37    38    24    41
 C    -2.22370  -0.04110  -2.17450    38    34    37    20
 C     1.79200  -1.36390  -1.95670    39    46    25    40
 C     1.57780  -0.01070  -2.29130    40    39    42    41
 C     0.22500   0.41840  -2.36930    41    40    36    37
 C     2.64430   0.81910  -1.85090    42    11    48    40
 C    -3.20380   2.13680  -0.13290    43    35    44     1
 C    -3.62700   1.39820   0.90730    44    43     4    21
 C    -1.41080   1.99690  -1.50160    45    34    36     1
 C     2.88810  -1.68620  -1.22000    46    47    26    39
 C     3.89360  -0.89400  -0.87930    47    46    48    51
 C     3.87500   0.40050  -1.29920    48    52    47    42
 C     3.27110   0.81830   1.63240    49     9    50    28
 C     4.30630   0.36530   0.85920    50    51    49    52
 C     4.06860  -0.92930   0.49590    51    50    47    33
 C     4.28020   1.17630  -0.25870    52    13    48    50
