    52
C52-C1-70                                                                       
 C     3.74670  -0.48920   0.80140     1     2    38     5
 C     4.21300   0.22730  -0.24910     2    12     1    27
 C     1.41200  -1.41430   2.05480     3    10     4    39
 C     1.75240  -0.06080   2.23130     4     3     5     7
 C     2.96910   0.34680   1.63510     5    13     1     4
 C    -0.74410   0.35160   2.56390     6     8    11     7
 C     0.62660   0.84460   2.36440     7     4    14     6
 C    -1.82980   1.20640   2.22720     8    25    52     6
 C    -0.00400  -2.82650   1.15270     9    40    42    10
 C     0.08810  -1.85270   2.12050    10     9    11     3
 C    -1.02130  -1.06920   2.40990    11    10    50     6
 C     3.85110   1.49010  -0.03970    12     2    13    16
 C     3.11140   1.59850   1.08000    13    12    15     5
 C     0.80230   2.09580   1.61350    14    26    15     7
 C     1.96740   2.29940   0.89510    15    13    14    19
 C     2.95380   1.81300  -1.00770    16    12    19    17
 C     2.68030   0.71670  -1.80750    17    16    27    18
 C     1.39890   0.48940  -2.33010    18    17    29    22
 C     1.87160   2.48250  -0.51350    19    16    21    15
 C    -0.46200   2.84350  -0.33510    20    47    21    26
 C     0.63870   2.49630  -1.12570    21    19    20    22
 C     0.38180   1.52720  -2.16650    22    23    21    18
 C    -0.96740   1.21250  -2.36900    23    24    22    48
 C    -1.32010  -0.07220  -2.60270    24    37    23    28
 C    -1.58130   2.30080   1.45420    25    26    46     8
 C    -0.34820   2.62940   1.06630    26    25    14    20
 C     3.50170  -0.27260  -1.29230    27     2    31    17
 C    -0.44730  -1.10760  -2.49680    28    24    32    29
 C     0.93620  -0.89720  -2.36710    29    28    30    18
 C     1.67780  -1.86030  -1.58230    30    31    34    29
 C     2.89070  -1.45580  -0.99320    31    27    30    38
 C    -1.20390  -2.10050  -1.85390    32    33    28    35
 C    -0.52330  -2.84750  -0.93790    33    32    34    42
 C     0.86450  -2.75170  -0.83720    34    40    33    30
 C    -2.49080  -1.59970  -1.59110    35    37    36    32
 C    -3.03540  -1.75230  -0.31590    36    45    35    41
 C    -2.54520  -0.34060  -2.12580    37    24    35    43
 C     3.12980  -1.63860   0.40180    38    39     1    31
 C     2.11860  -2.18760   1.10050    39    40    38     3
 C     1.15640  -2.88630   0.50120    40    39     9    34
 C    -2.24120  -2.32480   0.67940    41    42    36    50
 C    -1.07460  -2.94430   0.34520    42     9    41    33
 C    -3.08610   0.78360  -1.56140    43    37    44    48
 C    -3.75780   0.59690  -0.34640    44    49    45    43
 C    -3.66160  -0.66200   0.24570    45    51    36    44
 C    -2.50560   2.42540   0.47960    46    25    49    47
 C    -1.80150   2.62130  -0.66910    47    46    48    20
 C    -2.08060   1.77640  -1.71390    48    47    23    43
 C    -3.43750   1.46970   0.67940    49    46    52    44
 C    -2.27090  -1.45230   1.79930    50    51    41    11
 C    -3.23620  -0.53150   1.54040    51    52    50    45
 C    -3.06480   0.75590   1.79180    52    51    49     8
