    52
C52-C2-386                                                                      
 C     1.34690   2.40670  -1.16190     1     2     3    12
 C     0.11950   2.83300  -0.68080     2     6     1     4
 C     2.43500   2.17450  -0.32760     3     1    25    11
 C    -0.11370   2.84070   0.69340     4    26     5     2
 C    -1.34940   2.42240   1.16390     5     4     8    40
 C    -0.89220   2.35500  -1.49590     6     7     2    13
 C    -2.16370   2.14970  -1.01970     7    16     6     8
 C    -2.45120   2.18320   0.34840     8     5     7    51
 C     3.10060   0.31720  -1.66550     9    20    10    11
 C     1.90290   0.45710  -2.37970    10    12     9    22
 C     3.39210   1.18620  -0.60220    11    19     3     9
 C     1.07210   1.53400  -2.21040    12    10    13     1
 C    -0.29510   1.44010  -2.38080    13    12     6    14
 C    -0.96310   0.20900  -2.64510    14    15    13    21
 C    -2.30320   0.15980  -2.25870    15    44    16    14
 C    -2.92260   1.14980  -1.52160    16     7    47    15
 C     3.82870  -0.70480   0.81960    17    18    19    35
 C     3.57900  -1.54750  -0.20670    18    17    20    33
 C     3.76930   0.64580   0.62140    19    24    17    11
 C     3.23290  -1.03390  -1.41860    20    23    18     9
 C    -0.13200  -0.96680  -2.50480    21    22    14    46
 C     1.26030  -0.78950  -2.48100    22    23    21    10
 C     2.09530  -1.63750  -1.83500    23    20    22    41
 C     2.93560   1.17280   1.55600    24    25    19    27
 C     2.17930   2.17910   1.05020    25    24    26     3
 C     0.90160   2.38080   1.50800    26    25     4    30
 C     2.32560   0.15740   2.27910    27    35    24    29
 C     0.14370  -0.94070   2.46820    28    32    29    37
 C     0.97540   0.23510   2.63400    29    27    30    28
 C     0.28930   1.45930   2.37670    30    40    26    29
 C    -2.07830  -1.60200   1.79740    31    32    49    38
 C    -1.24650  -0.75310   2.44640    32    31    28    39
 C     2.51470  -2.34680   0.12390    33    41    18    34
 C     2.04500  -1.99140   1.37050    34    35    33    37
 C     2.88160  -0.98300   1.77300    35    27    34    17
 C    -0.22720  -2.61380   0.66740    36    38    37    42
 C     0.68270  -2.04220   1.65890    37    34    36    28
 C    -1.58480  -2.44290   0.84260    38    31    43    36
 C    -1.92550   0.47530   2.38100    39    40    32    50
 C    -1.08410   1.54600   2.21440    40    39    30     5
 C     1.60220  -2.49040  -0.88680    41    23    33    42
 C     0.24300  -2.64090  -0.71720    42    41    46    36
 C    -2.52580  -2.33150  -0.14130    43    38    45    52
 C    -2.85810  -0.97890  -1.74780    44    15    45    48
 C    -2.02960  -2.00690  -1.38240    45    44    43    46
 C    -0.67730  -2.06670  -1.69710    46    45    42    21
 C    -3.77470   0.63520  -0.59690    47    16    48    51
 C    -3.83380  -0.71910  -0.79890    48    52    47    44
 C    -3.26200  -1.03160   1.43140    49    52    31    50
 C    -3.13910   0.32140   1.68640    50    49    51    39
 C    -3.41550   1.20110   0.62880    51    47    50     8
 C    -3.60780  -1.56260   0.22690    52    48    49    43
