    52
C52-C2-171                                                                      
 C     3.03570  -0.21450  -2.07090     1     2     4     8
 C     2.98130  -1.38140  -1.43370     2     1     7    34
 C     2.99220   1.67530  -1.11240     3     4    37    16
 C     3.77430   0.61470  -1.30850     4     3     1    32
 C     0.55630  -2.66950   0.57880     5     6    13    23
 C     1.77800  -2.45880   0.01360     6     5     7    22
 C     1.81690  -2.06070  -1.32800     7     2     6    10
 C     1.83310   0.34230  -2.45650     8     1    16     9
 C     0.60950  -0.35430  -2.57290     9     8    18    10
 C     0.61010  -1.70860  -1.98970    10    12     7     9
 C    -1.82880  -1.62000  -1.86910    11    12    31    19
 C    -0.62370  -2.18560  -1.48520    12    11    10    13
 C    -0.61830  -2.67530  -0.14570    13     5    29    12
 C     0.61100   2.67640  -0.15400    14    50    38    15
 C     0.61820   2.18720  -1.50100    15    16    17    14
 C     1.82640   1.62450  -1.87310    16    15     3     8
 C    -0.62630   1.71250  -2.00010    17    52    15    18
 C    -0.63260   0.35460  -2.58140    18    19     9    17
 C    -1.86150  -0.34100  -2.47730    19    49    18    11
 C     2.45600  -1.15250   1.83130    20    21    22    35
 C     1.19470  -1.33740   2.39200    21    23    25    20
 C     2.84570  -1.84240   0.67920    22    34    20     6
 C     0.25200  -2.19330   1.84360    23    24     5    21
 C    -1.11180  -1.98850   1.89010    24    23    29    27
 C     0.69420  -0.12250   2.83920    25    21    36    26
 C    -0.68250   0.11460   2.84020    26    41    27    25
 C    -1.63130  -0.82960   2.46440    27    26    46    24
 C    -2.86630  -1.88710   0.22730    28    29    31    45
 C    -1.69530  -2.40600   0.70470    29    28    24    13
 C    -3.77770  -0.61010  -1.34400    30    31    49    44
 C    -3.00300  -1.66430  -1.11970    31    30    28    11
 C     4.11300   0.04550  -0.12350    32     4    34    33
 C     3.52220   0.80820   0.87720    33    32    35    37
 C     3.65710  -1.24490  -0.23740    34    22    32     2
 C     2.76020   0.22690   1.90370    35    36    33    20
 C     1.63220   0.83240   2.45640    36    39    25    35
 C     2.86630   1.88660   0.23230    37    38     3    33
 C     1.68760   2.39200   0.70230    38    37    39    14
 C     1.10500   1.98740   1.89210    39    42    38    36
 C    -2.44090   1.14370   1.84270    40    41    43    46
 C    -1.17870   1.33570   2.39890    41    42    26    40
 C    -0.25450   2.20250   1.83460    42    39    50    41
 C    -2.81440   1.82560   0.68130    43    47    40    51
 C    -4.06870  -0.05530  -0.12750    44    30    47    45
 C    -3.51090  -0.81640   0.88880    45    44    46    28
 C    -2.76560  -0.23090   1.92020    46    27    45    40
 C    -3.60140   1.23050  -0.25340    47    43    48    44
 C    -2.99960   1.38260  -1.47650    48    49    52    47
 C    -3.07780   0.22680  -2.13230    49    48    30    19
 C    -0.55770   2.69080   0.57430    50    51    14    42
 C    -1.76970   2.46700   0.00230    51    50    52    43
 C    -1.83160   2.06770  -1.33420    52    48    51    17
