    52
C52-C2-421                                                                      
 C     1.19130  -1.32720   2.41590     1     2    12     3
 C     0.03560  -0.68830   2.84260     2     1     6     4
 C     2.33990  -0.60470   2.09980     3     1    11    31
 C    -0.02050   0.70530   2.83830     4    32     5     2
 C    -1.18310   1.33370   2.41390     5     4    39     8
 C    -1.06570  -1.42300   2.41710     6     7     2    14
 C    -2.25780  -0.79140   2.12270     7    18     6     8
 C    -2.33410   0.61120   2.09600     8     5     7    51
 C     2.69350  -1.99110   0.18550     9    11    10    22
 C     1.55800  -2.73320   0.54220    10    13    12     9
 C     3.15290  -0.96870   1.01580    11    21     9     3
 C     0.79770  -2.42560   1.65880    12    10     1    14
 C     0.85250  -2.96600  -0.59460    13    23    10    17
 C    -0.60500  -2.48200   1.61320    14    12     6    16
 C    -2.54790  -2.18190   0.20820    15    18    46    16
 C    -1.32590  -2.82840   0.42390    16    15    17    14
 C    -0.50210  -2.97020  -0.71040    17    13    16    41
 C    -3.02600  -1.22890   1.09300    18     7    47    15
 C     3.45890   0.41610  -0.86270    19    21    25    20
 C     2.87560  -0.49420  -1.70540    20    19    22    29
 C     3.59620   0.19970   0.46470    21    19    30    11
 C     2.58280  -1.74440  -1.20970    22    23    20     9
 C     1.43550  -2.32730  -1.61680    23    13    22    27
 C     1.90300   1.51200  -1.98440    24    26    25    29
 C     2.84360   1.61210  -1.00360    25    19    24    33
 C     0.75620   2.23530  -1.87840    26    24    45    34
 C     0.45470  -1.76420  -2.39160    27    23    41    28
 C     0.60080  -0.41500  -2.80130    28    27    29    44
 C     1.85370   0.18090  -2.43820    29    24    20    28
 C     3.05120   1.25600   1.12070    30    21    31    33
 C     2.28020   0.80490   2.15100    31    30    32     3
 C     1.08240   1.43750   2.42690    32    31     4    36
 C     2.57100   2.20450   0.22610    33    30    25    35
 C     0.50890   2.96830  -0.69100    34    37    35    26
 C     1.34140   2.83520   0.43970    35    33    34    36
 C     0.60280   2.48890   1.61850    36    32    39    35
 C    -0.84690   2.96080  -0.57040    37    40    38    34
 C    -1.58460   2.75230   0.55370    38    37    39    50
 C    -0.80630   2.44320   1.65890    39    38     5    36
 C    -1.42880   2.28890  -1.57970    40    37    49    45
 C    -0.76410  -2.26310  -1.91270    41    42    27    17
 C    -1.91250  -1.53980  -1.99950    42    41    46    43
 C    -1.85400  -0.20070  -2.43720    43    42    52    44
 C    -0.59460   0.39010  -2.79080    44    45    43    28
 C    -0.45190   1.72670  -2.35950    45    40    26    44
 C    -2.85910  -1.61150  -1.01890    46    48    42    15
 C    -3.60730  -0.18220   0.44890    47    48    18    51
 C    -3.48150  -0.42180  -0.88170    48    46    47    52
 C    -2.58990   1.72670  -1.18160    49    40    52    50
 C    -2.72470   2.01580   0.20540    50    51    38    49
 C    -3.17000   0.98870   1.02830    51    47    50     8
 C    -2.87750   0.48320  -1.70590    52    48    49    43
