    52
C52-C2-388                                                                      
 C    -2.04690  -1.37410   1.92390     1     2     3     9
 C    -0.89080  -2.08450   1.69150     2     1    19    10
 C    -1.86810  -0.08540   2.44930     3     5     1     4
 C    -0.57180   0.42010   2.71590     4     3    18     6
 C    -2.89940   0.61640   1.87040     5    30    39     3
 C    -0.36300   1.71910   2.15290     6    51    38     4
 C    -2.91440  -1.93650  -0.20410     7    21     9     8
 C    -1.66440  -2.50740  -0.48970     8    10     7    26
 C    -3.15070  -1.36730   1.05530     9    30     7     1
 C    -0.69720  -2.69480   0.45610    10     8    11     2
 C     0.64710  -2.71190   0.17820    11    10    15    12
 C     1.17070  -2.36740  -1.10290    12    13    11    25
 C     2.48630  -1.89700  -1.08650    13    27    16    12
 C     2.59650  -1.78610   1.23640    14    15    20    16
 C     1.33030  -2.27440   1.32220    15    14    19    11
 C     3.26920  -1.72050   0.04580    16    14    49    13
 C     1.87470   0.08820   2.45830    17    20    52    18
 C     0.57970  -0.42330   2.71730    18    17    19     4
 C     0.35680  -1.71110   2.15360    19     2    15    18
 C     2.89240  -0.61740   1.86570    20    14    48    17
 C    -3.24030  -1.17910  -1.31260    21    22    28     7
 C    -2.15410  -1.17310  -2.11340    22    21    26    35
 C     1.83330  -0.10690  -2.44260    23    36    27    24
 C     0.51420  -0.51530  -2.58300    24    23    34    25
 C     0.17600  -1.81070  -1.98900    25    26    12    24
 C    -1.17790  -2.01860  -1.71900    26    22    25     8
 C     2.84870  -0.82280  -1.85360    27    13    23    50
 C    -3.77220   0.07030  -1.23500    28    29    21    31
 C    -4.05710   0.59210  -0.01350    29    28    30    37
 C    -3.75720  -0.12380   1.11050    30     5    29     9
 C    -2.85440   0.85510  -1.88420    31    41    28    35
 C     1.16750   1.99380  -1.69880    32    36    44    33
 C    -0.19030   1.79210  -1.97900    33    32    40    34
 C    -0.53260   0.50570  -2.60030    34    35    24    33
 C    -1.85760   0.11530  -2.48400    35    22    31    34
 C     2.16350   1.16890  -2.09810    36    32    47    23
 C    -3.25620   1.72410   0.03870    37    39    29    41
 C    -1.34300   2.28360   1.32990    38    39     6    42
 C    -2.60350   1.79710   1.24160    39    38     5    37
 C    -1.17820   2.37250  -1.09340    40    41    42    33
 C    -2.50090   1.92140  -1.11240    41    31    37    40
 C    -0.64030   2.70250   0.18790    42    45    38    40
 C     2.91370   1.92980  -0.22580    43    47    44    46
 C     1.65850   2.49650  -0.48870    44    45    32    43
 C     0.70310   2.68020   0.47020    45    44    42    51
 C     3.11980   1.35790   1.04030    46    48    52    43
 C     3.29070   1.19090  -1.33750    47    36    50    43
 C     3.73530   0.11010   1.08190    48    20    49    46
 C     4.08470  -0.60510  -0.04610    49    50    48    16
 C     3.83250  -0.05630  -1.25260    50    49    47    27
 C     0.89410   2.09140   1.71560    51    52     6    45
 C     2.04160   1.37880   1.94000    52    51    17    46
