    52
C52-C1-156                                                                      
 C    -2.75200   2.18650   0.06490     1    29     6     5
 C    -2.00750   0.69640   2.14760     2     4    34    28
 C     0.12560   1.82500   2.09550     3    35    50     4
 C    -1.27990   1.87800   1.90000     4     5     2     3
 C    -1.74510   2.71260   0.86400     5    11     1     4
 C    -2.24910   2.19410  -1.19820     6     8     7     1
 C    -2.45650   1.00960  -1.79870     7     6    12     9
 C    -1.08630   2.81350  -1.21070     8     6    17    11
 C    -1.33090   0.40040  -2.46370     9    10     7    18
 C    -1.32880  -0.98450  -2.33980    10    13     9    21
 C    -0.78590   3.25380   0.03800    11    51     8     5
 C    -3.36020   0.30810  -0.96140    12    14     7    29
 C    -2.31010  -1.63920  -1.64300    13    16    14    10
 C    -3.33070  -1.06770  -0.93140    14    13    12    23
 C    -0.44840  -2.69060  -1.19680    15    16    26    21
 C    -1.77550  -2.66370  -0.96440    16    24    13    15
 C     0.02090   2.32370  -1.81310    17     8    46    18
 C    -0.02840   1.05690  -2.47740    18    17    19     9
 C     1.19910   0.28980  -2.43700    19    48    18    20
 C     1.12780  -1.15130  -2.26080    20    21    22    19
 C    -0.13890  -1.69750  -2.15930    21    20    10    15
 C     2.16290  -1.80380  -1.54840    22    45    20    25
 C    -3.36830  -1.77280   0.26180    23    27    24    14
 C    -2.35650  -2.71730   0.23770    24    16    31    23
 C     1.76670  -2.57340  -0.41020    25    38    26    22
 C     0.45730  -2.88530  -0.14290    26    25    15    30
 C    -3.17200  -1.04650   1.38680    27    32    23    28
 C    -3.17580   0.32080   1.42080    28    27    29     2
 C    -3.44050   1.03760   0.26260    29     1    28    12
 C    -0.08230  -2.62180   1.18770    30    31    39    26
 C    -1.48340  -2.53110   1.28950    31    32    24    30
 C    -2.04280  -1.49430   1.98270    32    34    27    31
 C     0.08910  -0.57260   2.55690    33    34    35    39
 C    -1.29870  -0.48400   2.48270    34    32    33     2
 C     0.79860   0.64350   2.46740    35    42     3    33
 C     2.10810  -1.60780   1.65080    36    38    39    41
 C     3.68880  -1.51990   0.04660    37    38    45    40
 C     2.67750  -2.22990   0.55170    38    37    25    36
 C     0.75160  -1.73710   1.98690    39    36    30    33
 C     3.82840  -0.39500   0.78370    40    37    43    41
 C     2.84630  -0.41090   1.75880    41    42    40    36
 C     2.11550   0.72210   2.04750    42    41    35    49
 C     3.75930   0.66790  -0.08920    43    52    40    44
 C     3.37410   0.13670  -1.30450    44    45    48    43
 C     3.34460  -1.19820  -1.21210    45    44    37    22
 C     1.08550   2.69790  -0.99900    46    47    17    51
 C     2.25310   2.01110  -1.02790    47    46    48    52
 C     2.36220   0.88130  -1.84050    48    44    47    19
 C     2.26500   1.89650   1.29640    49    50    52    42
 C     1.05600   2.56390   1.32950    50    51    49     3
 C     0.54900   3.18460   0.20870    51    11    50    46
 C     3.01960   1.78700   0.12700    52    43    49    47
