    52
C52-C1-286                                                                      
 C    -3.05440  -1.73490   0.21190     1     2    29     8
 C    -2.11400  -2.48180   0.81400     2     1     3    16
 C    -1.24980  -3.23200   0.08970     3     2    12     4
 C    -0.99780  -2.73660  -1.22870     4     5    10     3
 C     0.32560  -2.96790  -1.41630     5    13     4    52
 C    -2.57720   1.04000  -1.60420     6     7    33    11
 C    -3.26260   0.00810  -1.03840     7     8     6    31
 C    -2.80730  -1.25990  -1.07270     8     7    10     1
 C    -0.82110  -0.53650  -2.33710     9    51    10    11
 C    -1.63980  -1.60290  -1.74470    10     8     4     9
 C    -1.30610   0.84710  -2.22130    11     6    48     9
 C    -0.01720  -3.55950   0.54980    12    13     3    14
 C     0.90440  -3.64760  -0.40900    13    28    12     5
 C     0.52090  -2.68950   1.50210    14    12    26    15
 C    -0.23150  -1.65670   2.13210    15    16    14    23
 C    -1.59760  -1.64070   1.82480    16    17    15     2
 C    -2.37880  -0.49010   1.85030    17    16    29    18
 C    -1.78790   0.78300   2.07920    18    17    19    24
 C    -2.40790   1.84570   1.35430    19    35    30    18
 C     0.39040   2.05040   1.93480    20    21    34    24
 C     1.76670   1.98570   1.70420    21    25    36    20
 C     1.77240  -0.35090   2.13370    22    25    27    23
 C     0.39310  -0.40370   2.43970    23    22    15    24
 C    -0.35980   0.85340   2.36770    24    18    23    20
 C     2.40280   0.80050   1.83430    25    22    21    42
 C     1.84660  -2.47750   1.09260    26    27    28    14
 C     2.46960  -1.32630   1.41140    27    26    22    46
 C     2.05660  -3.04950  -0.15250    28    13    26    43
 C    -3.43530  -0.66040   0.95030    29    31     1    17
 C    -3.38760   1.60760   0.37570    30    31    33    19
 C    -3.80130   0.36530   0.17790    31    30    29     7
 C    -1.83490   2.91500  -0.48470    32    33    47    35
 C    -2.83590   2.11590  -0.77170    33    32    30     6
 C    -0.27480   2.93750   1.06350    34    35    20    38
 C    -1.57820   2.78720   0.84110    35    34    19    32
 C     2.43370   2.60760   0.65010    36    37    40    21
 C     1.63270   3.06410  -0.35630    37    38    36    39
 C     0.31890   3.30520  -0.17150    38    37    47    34
 C     1.95850   2.27080  -1.41810    39    41    37    49
 C     3.38100   1.72420   0.16290    40    42    41    36
 C     2.99500   1.46820  -1.10870    41    39    40    44
 C     3.41920   0.62840   0.94500    42    40    25    46
 C     2.33230  -2.09060  -1.12390    43    45    28    52
 C     2.74630   0.20750  -1.59090    44    41    45    50
 C     3.06830  -0.95000  -0.85090    45    43    44    46
 C     3.34960  -0.67190   0.52510    46    42    27    45
 C    -0.65380   2.96950  -1.13440    47    32    38    48
 C    -0.34010   1.91790  -2.07010    48    49    47    11
 C     1.01250   1.60100  -2.14720    49    39    48    50
 C     1.49430   0.29610  -2.27940    50    51    49    44
 C     0.61680  -0.78490  -2.37910    51    50    52     9
 C     1.14300  -1.99740  -1.90290    52     5    51    43
