    52
C52-C3v-296                                                                     
 C    -1.30680  -0.46100  -2.58200     1    36    33     2
 C    -0.24260  -1.36410  -2.56610     2    51     3     1
 C    -0.29610  -2.50570  -1.78040     3     4     2     9
 C    -1.45000  -2.82300  -1.09660     4     5     3    34
 C    -1.33970  -3.29330   0.18970     5     6     4    11
 C    -2.29300  -2.72250   0.90120     6     8     5    13
 C    -0.41450  -2.32990   1.95190     7     8    17    11
 C    -1.75840  -2.07300   1.91040     8     6    15     7
 C     0.97510  -2.67520  -1.21160     9     3    46    10
 C     1.10120  -3.01210   0.17940    10    12    11     9
 C    -0.11550  -3.18080   0.83310    11     5    10     7
 C     2.13430  -2.36200   0.84480    12    10    48    16
 C    -3.00990  -1.87730   0.16650    13     6    34    14
 C    -3.08540  -0.66370   0.84190    14    13    22    15
 C    -2.23380  -0.80140   1.98680    15     8    19    14
 C     1.79220  -1.52060   1.95410    16    27    17    12
 C     0.48090  -1.35330   2.39650    17    16     7    18
 C    -0.01590   0.00360   2.65520    18    19    17    29
 C    -1.44050   0.25830   2.41520    19    15    20    18
 C    -1.82250   1.51710   1.95930    20    26    19    21
 C    -2.68650   1.69620   0.82820    21    23    22    20
 C    -3.13290   0.55460   0.16470    22    21    14    32
 C    -2.19240   2.80520   0.16350    23    24    30    21
 C    -1.21430   3.33260   0.89090    24    26    23    39
 C     0.42000   2.32730   1.95770    25    26    29    40
 C    -0.92270   2.53970   1.89570    26    24    25    20
 C     2.65590  -0.47290   1.86050    27    45    28    16
 C     2.20860   0.80990   1.94020    28    27    29    44
 C     0.92460   1.10260   2.39460    29    28    25    18
 C    -1.72910   2.67610  -1.12010    30    23    31    35
 C    -2.03170   1.51700  -1.80060    31    30    36    32
 C    -2.80380   0.48830  -1.23280    32    33    31    22
 C    -2.43110  -0.73510  -1.81050    33    34     1    32
 C    -2.54060  -1.91820  -1.12410    34    33    13     4
 C    -0.39470   3.15670  -1.09380    35    39    38    30
 C    -1.06350   0.90030  -2.58580    36     1    31    37
 C     0.24400   1.37730  -2.57240    37    50    38    36
 C     0.58170   2.46220  -1.77850    38    35    37    42
 C    -0.10890   3.55870   0.19000    39    24    35    40
 C     0.99210   3.03550   0.84650    40    39    41    25
 C     2.06320   2.45290   0.17610    41    40    44    42
 C     1.83590   2.17500  -1.21550    42    38    49    41
 C     3.52750   0.49180   0.17020    43    45    52    44
 C     2.81750   1.48160   0.83260    44    43    41    28
 C     3.51210  -0.63910   0.87270    45    27    48    43
 C     1.84280  -1.72850  -1.79050    46    47    51     9
 C     2.93790  -1.24740  -1.10490    47    48    46    52
 C     3.15790  -1.70070   0.16990    48    45    47    12
 C     2.33150   0.99540  -1.79820    49    52    50    42
 C     1.30120   0.48110  -2.58010    50    37    51    49
 C     1.05710  -0.88710  -2.57510    51     2    50    46
 C     3.18020   0.15430  -1.11710    52    49    43    47
