    52
C52-C1-196                                                                      
 C    -0.48790   2.63880   1.10460     1    12     2    39
 C    -0.97970   1.60620   1.90470     2     3     1     9
 C    -2.31480   1.30010   1.65700     3     2     4    38
 C    -2.81830   0.00240   1.73370     4     3    15     5
 C    -1.87200  -1.02910   1.94300     5     4     6    10
 C    -2.10980  -2.18070   1.12050     6     7    16     5
 C    -1.02620  -2.85210   0.62720     7     8     6    18
 C     0.18000  -2.78440   1.19160     8     7    20    11
 C     0.01720   0.62700   2.31030     9    10     2    14
 C    -0.48870  -0.73430   2.29100    10    11     9     5
 C     0.50150  -1.70300   2.01800    11     8    52    10
 C     0.80420   2.82650   0.92690    12     1    13    40
 C     1.81640   2.11760   1.47700    13    12    48    14
 C     1.46550   0.88780   2.10140    14    13    51     9
 C    -3.92770  -0.08440   0.86690    15    17    33     4
 C    -3.01690  -2.05220   0.09350    16    17    19     6
 C    -3.88500  -1.06160  -0.06330    17    16    15    22
 C    -1.07830  -2.73280  -0.78380    18    19    31     7
 C    -2.25610  -2.18000  -1.01910    19    18    16    21
 C     1.27600  -3.04880   0.46800    20     8    47    30
 C    -2.44850  -1.07970  -1.79700    21    19    22    23
 C    -3.56380  -0.46940  -1.27260    22    34    21    17
 C    -1.26380  -0.40020  -2.23410    23    21    28    24
 C    -1.28820   1.04950  -2.06850    24    36    35    23
 C     1.24070   1.10260  -2.09480    25    26    36    27
 C     2.40810   1.70140  -1.47940    26    44    42    25
 C     1.26740  -0.35200  -2.22560    27    29    28    25
 C     0.01670  -1.09320  -2.18310    28    27    23    31
 C     2.45620  -1.00630  -1.75870    29    32    43    27
 C     1.25740  -2.79700  -0.89830    30    32    31    20
 C     0.07080  -2.39600  -1.48560    31    30    18    28
 C     2.42900  -2.18990  -1.09490    32    30    29    45
 C    -3.94110   1.08580   0.18370    33    38    15    34
 C    -3.58160   0.84580  -1.10870    34    22    33    35
 C    -2.46990   1.58320  -1.42800    35    34    37    24
 C    -0.04490   1.75560  -1.92610    36    24    41    25
 C    -2.29400   2.46210  -0.35370    37    39    38    35
 C    -3.05640   1.95240   0.66230    38    33    37     3
 C    -1.08810   2.93380  -0.13640    39    37    41     1
 C     1.08810   3.16530  -0.35390    40    42    41    12
 C    -0.04060   2.89000  -1.03050    41    40    39    36
 C     2.28560   2.71010  -0.56080    42    40    26    48
 C     3.47170  -0.32950  -1.13360    43    44    29    46
 C     3.41820   0.95240  -0.96700    44    43    26    49
 C     3.23540  -2.12360   0.02240    45    46    47    32
 C     3.83610  -0.94340   0.04860    46    45    43    50
 C     2.36220  -2.44890   0.99070    47    45    20    52
 C     2.88030   2.26510   0.60040    48    49    42    13
 C     3.66450   1.23460   0.35820    49    48    50    44
 C     3.58990   0.03340   1.02280    50    49    46    51
 C     2.42700  -0.18140   1.87810    51    52    14    50
 C     1.87460  -1.47250   1.85830    52    47    11    51
