    52
C52-Cs-314                                                                      
 C     1.53580   2.47650   1.32820     1     9     5    14
 C     1.48810  -1.38680   2.17210     2    39    42     3
 C     0.25710  -0.73260   2.52680     3    12     2     4
 C     0.25300   0.74350   2.53640     4     5     7     3
 C     1.49210   1.37490   2.18620     5    40     1     4
 C    -2.15390   0.71690   2.03040     6    49     7    11
 C    -0.95700   1.43170   2.18760     7     6     8     4
 C    -0.85080   2.61410   1.38190     8     9    46     7
 C     0.38090   3.10050   0.94520     9    10     1     8
 C     0.21490   3.53170  -0.34140    10    30    15     9
 C    -2.15080  -0.70220   2.02120    11    52    12     6
 C    -0.95440  -1.42260   2.17340    12    11    13     3
 C    -0.85240  -2.61550   1.37720    13    41    50    12
 C     2.57260   2.24350   0.37310    14    33    16     1
 C     1.09170   3.04230  -1.24720    15    29    10    16
 C     2.23570   2.37680  -0.95950    16    15    14    19
 C     2.24580  -1.20440  -1.73250    17    18    20    35
 C     2.85300   0.00150  -1.32140    18    19    17    32
 C     2.24020   1.19730  -1.74890    19    18    16    22
 C     0.99620  -1.17140  -2.41910    20    21    26    17
 C     0.37040  -2.31610  -2.07850    21    34    20    28
 C     0.99660   1.18250  -2.43990    22    29    26    19
 C    -2.79450   1.19140  -0.97660    23    44    24    47
 C    -1.76080   1.25690  -1.93680    24    31    23    25
 C    -1.16880   0.00430  -2.41040    25    27    24    26
 C     0.27890   0.00430  -2.66990    26    22    20    25
 C    -1.76170  -1.24570  -1.93180    27    28    45    25
 C    -0.95890  -2.37880  -1.80100    28    21    43    27
 C     0.35420   2.32420  -2.10730    29    15    22    31
 C    -1.05340   3.25170  -0.70220    30    10    46    31
 C    -0.97170   2.40210  -1.81200    31    29    24    30
 C     3.42400  -0.00860  -0.02810    32    37    33    18
 C     3.16510   1.09910   0.77350    33    14    40    32
 C     1.11330  -3.06710  -1.24470    34    21    35    38
 C     2.25130  -2.39790  -0.95100    35    34    36    17
 C     2.59200  -2.24620   0.38470    36    37    35    42
 C     3.18620  -1.10740   0.78170    37    36    39    32
 C     0.22760  -3.53240  -0.33210    38    34    43    41
 C     2.60030  -0.65500   1.91260    39    40    37     2
 C     2.59700   0.64910   1.91560    40    39     5    33
 C     0.38180  -3.11590   0.95900    41    42    38    13
 C     1.54320  -2.50200   1.32780    42    41     2    36
 C    -1.04090  -3.23100  -0.70120    43    38    50    28
 C    -3.32420   0.00090  -0.59350    44    48    45    23
 C    -2.80170  -1.18830  -0.98260    45    44    27    51
 C    -1.81020   2.86180   0.35550    46    47    30     8
 C    -2.83250   1.99540   0.20840    47    46    49    23
 C    -3.69540   0.00960   0.69610    48    49    52    44
 C    -3.20330   1.11770   1.19300    49    48    47     6
 C    -1.81150  -2.85480   0.34860    50    51    43    13
 C    -2.83910  -1.99440   0.19660    51    50    52    45
 C    -3.19280  -1.12180   1.18010    52    48    51    11
