    52
C52-C1-350                                                                      
 C     3.10810   0.44520  -1.47800     1    30     2     4
 C     3.41570  -0.76110  -0.88670     2    10     1     3
 C     3.55180  -0.84120   0.50280     3     8    21     2
 C     1.95810   0.57120  -2.30540     4     5     1    40
 C     1.13590  -0.54180  -2.59420     5     6     9     4
 C    -0.21440  -0.30310  -2.78350     6     5    18    35
 C     2.32490  -2.54380  -0.09910     7     8    10    12
 C     2.86660  -1.90800   0.96200     8     3     7    15
 C     1.48590  -1.75560  -1.98880     9    10     5    20
 C     2.60550  -1.82470  -1.20880    10     7     9     2
 C     2.25720  -0.15280   2.18820    11    15    21    16
 C     1.02440  -2.93690  -0.15610    12     7    13    20
 C     0.23030  -2.77330   0.95720    13    12    52    14
 C     0.75190  -2.01680   2.03220    14    27    15    13
 C     2.04110  -1.52830   1.97800    15     8    14    11
 C     1.15170   0.67950   2.56560    16    17    11    28
 C     1.17240   1.95560   1.94940    17    22    25    16
 C    -1.21510  -1.23360  -2.42180    18    48     6    19
 C    -0.90230  -2.29130  -1.53630    19    20    18    51
 C     0.46630  -2.53880  -1.37940    20    19    12     9
 C     3.28690   0.26590   1.28520    21    23     3    11
 C     2.16010   2.28950   1.07150    22    32    17    23
 C     3.19720   1.49370   0.68110    23    22    21    30
 C    -1.22060   2.02290   1.77990    24    25    26    36
 C    -0.01660   2.50970   1.45370    25    24    31    17
 C    -1.29960   0.85130   2.54130    26    29    24    28
 C    -0.31400  -1.29020   2.51280    27    14    45    28
 C    -0.13650   0.09690   2.81230    28    26    27    16
 C    -2.49460   0.31710   2.18360    29    42    26    47
 C     3.14890   1.57860  -0.70830    30    33     1    23
 C     0.21750   2.96590   0.15330    31    32    25    38
 C     1.56010   2.87150  -0.00310    32    33    31    22
 C     2.14820   2.39440  -1.09540    33    32    30    40
 C    -2.07860   0.77180  -2.28050    34    35    48    41
 C    -0.78460   0.97830  -2.59230    35    34    39     6
 C    -2.30440   2.05210   0.89120    36    42    24    37
 C    -2.05640   2.27590  -0.50470    37    41    36    38
 C    -0.70710   2.65190  -0.88350    38    31    37    39
 C    -0.04400   2.01410  -2.03860    39    35    40    38
 C     1.35700   1.83930  -2.04690    40    33    39     4
 C    -2.82320   1.40670  -1.32810    41    34    44    37
 C    -3.18780   1.06620   1.29310    42    43    29    36
 C    -3.86640   0.26420   0.44810    43    44    42    46
 C    -3.71610   0.42620  -0.86860    44    43    49    41
 C    -1.50410  -1.76180   1.93300    45    47    27    52
 C    -3.43690  -1.01950   0.76290    46    47    43    50
 C    -2.62950  -1.00030   1.85640    47    46    45    29
 C    -2.37060  -0.54910  -2.27420    48    49    18    34
 C    -3.32240  -0.78430  -1.38220    49    48    44    50
 C    -3.03240  -1.69050  -0.38780    50    49    46    51
 C    -1.81720  -2.43670  -0.40420    51    50    52    19
 C    -1.13000  -2.56910   0.84520    52    13    45    51
