    52
C52-C2-434                                                                      
 C    -1.62920   0.40110   2.65610     1     9     2    14
 C    -2.64260  -0.17740   1.93960     2     1    13     3
 C    -2.47920  -1.51450   1.48300     3    37     2     7
 C    -1.35740  -2.71380  -0.75220     4    36    39     6
 C     0.74870  -2.89650   0.36860     5    10    49     6
 C    -0.66160  -2.86780   0.48900     6     5     4     7
 C    -1.23600  -2.21360   1.65510     7     8     3     6
 C    -0.29110  -1.61610   2.51710     8     9    50     7
 C    -0.55390  -0.34620   2.97970     9    19     1     8
 C     1.35600  -2.69170  -0.85050    10    52    38     5
 C    -2.75700   1.81810   0.61540    11    15    13    12
 C    -1.64570   2.34670   1.30380    12    14    23    11
 C    -3.28240   0.57330   0.94420    13    27    11     2
 C    -1.09130   1.66700   2.35730    14    12    20     1
 C    -2.52270   2.05460  -0.71440    15    16    11    25
 C    -1.35590   2.69270  -0.82550    16    15    18    23
 C     0.65590   2.26040  -1.88710    17    18    33    24
 C    -0.69340   2.22960  -1.92140    18    17    16    28
 C     0.57130   0.37050   3.00070    19     9    45    20
 C     0.29960   1.63720   2.53130    20    19    14    21
 C     1.23640   2.22460   1.65270    21    20    47    22
 C     0.65900   2.88820   0.48910    22    23    24    21
 C    -0.74810   2.92460   0.38720    23    16    12    22
 C     1.35600   2.71400  -0.74460    24    44    17    22
 C    -2.65360   1.13220  -1.72760    25    26    15    28
 C    -3.23580  -0.05940  -1.39740    26    29    25    27
 C    -3.57240  -0.30810  -0.06320    27    37    13    26
 C    -1.43610   1.16980  -2.45140    28    18    25    31
 C    -2.58470  -1.18890  -1.78800    29    36    26    30
 C    -1.38690  -1.20550  -2.46010    30    29    39    31
 C    -0.72590  -0.00780  -2.86240    31    30    28    34
 C     2.58170   1.18320  -1.79340    32    44    41    33
 C     1.37800   1.20500  -2.45970    33    32    17    34
 C     0.71760   0.00870  -2.85500    34    33    35    31
 C     1.43010  -1.16750  -2.43780    35    38    42    34
 C    -2.56390  -2.10040  -0.78410    36    37     4    29
 C    -3.13890  -1.54960   0.28230    37    36    27     3
 C     0.68070  -2.24300  -1.93860    38    39    10    35
 C    -0.66430  -2.26750  -1.91200    39    38    30     4
 C     3.57270   0.29340  -0.05760    40    43    51    41
 C     3.23940   0.05470  -1.39610    41    42    32    40
 C     2.65360  -1.13610  -1.71350    42    41    52    35
 C     3.11320   1.53270   0.27890    43    44    40    47
 C     2.54840   2.09290  -0.78240    44    43    24    32
 C     1.63630  -0.39130   2.67880    45    19    46    50
 C     2.65730   0.16750   1.95420    46    45    51    47
 C     2.46570   1.49680   1.48280    47    43    46    21
 C     2.77210  -1.82590   0.61890    48    52    51    49
 C     1.64710  -2.33690   1.29980    49    50     5    48
 C     1.10120  -1.65740   2.35770    50    49     8    45
 C     3.30120  -0.58590   0.96410    51    40    48    46
 C     2.52900  -2.06740  -0.70810    52    10    48    42
