    52
C52-C2-129                                                                      
 C    -3.63320   1.71930  -0.23820     1     2     5    29
 C    -2.45810   2.30910  -0.44240     2     1    18    31
 C     1.68940   2.31340  -0.68160     3    19     4    38
 C     0.31650   2.42660  -0.65330     4     3    32    17
 C    -3.66260   1.22900   1.00990     5     1     6     8
 C    -4.05710  -0.05970   0.87430     6     7     5    21
 C    -3.26170  -0.97000   1.47190     7     6    24    10
 C    -2.42520   1.54780   1.60500     8     5    18     9
 C    -1.62560   0.61760   2.30540     9     8    10    15
 C    -2.12470  -0.70960   2.19580    10     7    12     9
 C     0.12210  -1.55060   2.13270    11    12    40    16
 C    -1.20280  -1.70580   1.92300    12    11    10    23
 C     1.84740   1.82180   1.55490    13    19    14    50
 C     0.45430   1.85870   1.69290    14    13    17    15
 C    -0.21500   0.79700   2.40820    15    16     9    14
 C     0.65050  -0.32880   2.52730    16    51    11    15
 C    -0.33360   2.44790   0.64870    17    18    14     4
 C    -1.69930   2.34080   0.68970    18     2    17     8
 C     2.47770   2.32110   0.44140    19    52     3    13
 C    -3.34410  -1.49580  -0.64700    20    24    22    21
 C    -4.13820  -0.36530  -0.48290    21    29    20     6
 C    -2.31380  -1.50730  -1.58080    22    20    25    27
 C    -1.65710  -2.43490   0.82300    23    24    12    26
 C    -2.90070  -1.92570   0.57250    24     7    23    20
 C    -1.09430  -2.16490  -1.39420    25    35    22    26
 C    -0.69630  -2.74960  -0.14760    26    23    41    25
 C    -2.01060  -0.32140  -2.28390    27    28    30    22
 C    -2.73090   0.81650  -2.00130    28    27    29    31
 C    -3.84930   0.77810  -1.19260    29     1    21    28
 C    -0.64810  -0.32570  -2.53670    30    35    27    33
 C    -1.85120   1.83510  -1.57920    31     2    32    28
 C    -0.46130   1.85480  -1.72320    32    31    33     4
 C     0.21520   0.80440  -2.43770    33    37    30    32
 C     1.19890  -1.69950  -1.92910    34    35    36    39
 C    -0.11880  -1.54320  -2.14500    35    34    25    30
 C     2.12700  -0.70540  -2.20220    36    43    34    37
 C     1.61990   0.62060  -2.32150    37    38    33    36
 C     2.41880   1.53290  -1.60010    38    45     3    37
 C     1.64320  -2.41430  -0.81790    39    42    34    41
 C     1.11110  -2.18530   1.40610    40    11    46    41
 C     0.69470  -2.74340   0.15930    41    39    26    40
 C     2.88720  -1.90350  -0.55510    42    43    39    48
 C     3.25270  -0.96260  -1.46630    43    44    42    36
 C     4.03560  -0.05380  -0.86810    44    43    45    47
 C     3.64830   1.24480  -0.98540    45    52    44    38
 C     2.33410  -1.53310   1.60040    46    48    40    51
 C     4.14520  -0.36640   0.48500    47    49    48    44
 C     3.36400  -1.50190   0.66920    48    42    46    47
 C     3.86200   0.78430   1.19160    49    52    47    50
 C     2.71940   0.79920   1.98670    50    51    49    13
 C     2.01070  -0.33950   2.28120    51    50    16    46
 C     3.66560   1.74900   0.26030    52    19    45    49
