    52
C52-C2-363                                                                      
 C     1.50810   2.39280  -1.43280     1     2    11    28
 C     0.19380   2.61520  -1.46420     2     1     4    13
 C    -0.04960   0.44940  -2.50900     3     6     9     4
 C    -0.66860   1.71540  -2.10050     4     2     5     3
 C    -1.99800   1.73630  -1.61930     5    14     8     4
 C    -0.91480  -0.65960  -2.44820     6     3    52     7
 C    -2.26680  -0.56170  -2.04230     7    20     8     6
 C    -2.79280   0.60420  -1.55750     8     7     5    16
 C     1.38350   0.20010  -2.33730     9    11     3    10
 C     1.86830  -1.13710  -1.92910    10    51    12     9
 C     2.17220   1.30280  -1.90100    11     1    41     9
 C     3.06820  -1.17930  -1.11060    12    48    40    10
 C    -0.12550   3.21900  -0.22430    13    15    27     2
 C    -2.35410   2.47500  -0.51100    14    17    15     5
 C    -1.37590   3.07390   0.23450    15    13    21    14
 C    -3.56970   0.60400  -0.36100    16    17    18     8
 C    -3.22840   1.77070   0.25760    17    14    22    16
 C    -3.56380  -0.59670   0.35980    18    19    16    23
 C    -3.20010  -1.76520  -0.22310    19    45    18    20
 C    -2.58240  -1.73610  -1.43910    20    47     7    19
 C    -1.55570   2.53550   1.47180    21    22    15    25
 C    -2.65320   1.76280   1.49240    22    21    24    17
 C    -2.80170  -0.57960   1.57170    23    24    39    18
 C    -2.29700   0.59290   2.07890    24    22    23    38
 C    -0.47210   1.94880   2.10140    25    21    26    38
 C     0.85910   2.18050   1.73760    26    25    31    27
 C     1.00850   3.02750   0.57390    27    28    13    26
 C     2.04590   2.77760  -0.24050    28    29    27     1
 C     3.05550   1.97980   0.00860    29    28    32    41
 C     1.35360  -0.17900   2.33920    30    33    36    31
 C     1.85110   1.14730   1.94140    31    32    26    30
 C     3.03670   1.16430   1.11460    32    35    29    31
 C     2.11790  -1.27930   1.87190    33    43    34    30
 C     3.21400  -1.16900   1.05650    34    35    48    33
 C     3.61830   0.01230   0.66630    35    34    32    40
 C    -0.07420  -0.43050   2.51450    36    38    30    37
 C    -0.67300  -1.69810   2.07800    37    42    39    36
 C    -0.94590   0.67320   2.47900    38    36    24    25
 C    -2.01260  -1.72790   1.61130    39    45    23    37
 C     3.66850  -0.00330  -0.70750    40    41    35    12
 C     3.27840   1.18020  -1.09870    41    40    11    29
 C     0.18430  -2.60390   1.42830    42    43    37    46
 C     1.49400  -2.38290   1.39290    43    42    33    49
 C    -1.38900  -3.12310  -0.21570    44    46    45    47
 C    -2.36280  -2.51930   0.52820    45    19    44    39
 C    -0.12230  -3.26140   0.21240    46    44    50    42
 C    -1.50840  -2.53030  -1.44670    47    20    44    52
 C     3.06730  -2.01280  -0.01140    48    49    34    12
 C     2.05400  -2.81730   0.22650    49    48    50    43
 C     1.01870  -3.06790  -0.59710    50    49    46    51
 C     0.87940  -2.18090  -1.73180    51    52    50    10
 C    -0.44310  -1.93630  -2.08560    52    47    51     6
