    52
C52-C1-305                                                                      
 C     2.83880  -2.15760  -0.55400     1     2    30     7
 C     1.68640  -2.80890  -0.81730     2     1     4    44
 C    -0.27910  -3.17100   0.36640     3     4     6    18
 C     1.05790  -3.15580   0.34230     4     3    10     2
 C    -2.28040  -2.60910  -0.32990     5    45     6    48
 C    -1.05680  -2.94790  -0.77850     6     5     3    43
 C     2.91100  -1.98520   0.80020     7     8    10     1
 C     3.10510  -0.75470   1.32520     8     7     9    12
 C     3.60460   0.23800   0.51070     9    11     8    29
 C     1.77340  -2.51450   1.30630    10     7     4    20
 C     3.22980   1.52660   0.73180    11    24     9    15
 C     1.97180  -0.48320   2.14160    12    20    14     8
 C    -0.03140   0.89540   2.35030    13    17    14    22
 C     1.40180   0.79460   2.22450    14    12    15    13
 C     2.11490   1.80130   1.51480    15    11    26    14
 C    -1.84930   2.11250   1.34970    16    17    23    46
 C    -0.57990   2.05810   1.77170    17    16    25    13
 C    -0.94490  -2.49040   1.41170    18    48     3    19
 C    -0.25840  -1.53880   2.20490    19    20    18    22
 C     1.13920  -1.60830   2.13470    20    10    12    19
 C    -2.32930  -0.11970   1.86910    21    23    49    22
 C    -0.93710  -0.26340   2.35750    22    19    13    21
 C    -2.77930   1.13600   1.39310    23    16    50    21
 C     3.12540   2.21270  -0.41930    24    27    28    11
 C     0.12210   2.92070   0.93710    25    26    17    37
 C     1.44390   2.80310   0.82050    26    25    27    15
 C     2.01980   2.95130  -0.41670    27    24    26    39
 C     3.06860   1.27720  -1.36470    28    24    29    31
 C     3.51990   0.07150  -0.90750    29    28    30     9
 C     2.93830  -1.07450  -1.37400    30     1    29    34
 C     1.81180   1.37310  -1.96490    31    28    39    33
 C    -0.37900   0.28830  -2.35360    32    33    36    41
 C     1.06390   0.23440  -2.34090    33    31    34    32
 C     1.70810  -1.00640  -2.08140    34    44    30    33
 C    -2.47770  -0.86560  -1.72210    35    42    45    36
 C    -1.13870  -0.95920  -2.17170    36    35    43    32
 C    -0.72990   3.17420  -0.15230    37    46    25    38
 C    -0.20360   2.57880  -1.35020    38    39    37    41
 C     1.17290   2.50030  -1.42600    39    38    27    31
 C    -2.36810   1.49030  -1.48220    40    42    47    41
 C    -1.02790   1.54310  -1.92650    41    40    38    32
 C    -3.04920   0.32290  -1.41370    42    40    35    51
 C    -0.42900  -2.16220  -1.80160    43    44     6    36
 C     0.95480  -2.14160  -1.78630    44    43     2    34
 C    -3.11920  -1.74060  -0.86490    45     5    52    35
 C    -1.98330   2.87030   0.22410    46    47    37    16
 C    -2.92980   2.23870  -0.45000    47    46    50    40
 C    -2.18930  -2.25720   0.97110    48    18     5    49
 C    -2.98580  -1.18860   1.20110    49    48    52    21
 C    -3.65990   1.34940   0.30730    50    51    47    23
 C    -3.97580   0.24600  -0.38210    51    52    50    42
 C    -3.81390  -1.00100   0.06830    52    51    45    49
