    52
C52-C2-376                                                                      
 C    -2.87040   1.81400   0.03870     1    36     2     4
 C    -2.35810   2.00820  -1.23340     2     3     1     5
 C    -1.19720   2.72940  -1.33400     3     8     2    27
 C    -3.27620   0.53180   0.45910     4     7     1    39
 C    -2.21380   0.92210  -2.09050     5     6     2    16
 C    -2.72530  -0.29080  -1.71480     6    19     5     7
 C    -3.28670  -0.53840  -0.44510     7     4    52     6
 C    -0.35830   2.11640  -2.18320     8     3    16     9
 C     0.93410   2.28820  -1.80420     9     8    11    20
 C     1.34550  -0.01490  -2.53780    10    13    18    11
 C     1.87790   1.26050  -2.02600    11     9    12    10
 C     2.92640   1.23570  -1.07570    12    15    21    11
 C     1.97640  -1.19880  -2.02020    13    14    47    10
 C     3.00040  -1.09870  -1.12170    14    15    43    13
 C     3.45890   0.05290  -0.66320    15    14    12    23
 C    -0.90670   0.96850  -2.65660    16     8    18     5
 C    -0.70800  -1.38710  -2.52230    17    19    46    18
 C    -0.07210  -0.15890  -2.82830    18    16    17    10
 C    -1.98980  -1.39250  -2.00970    19    49     6    17
 C     0.86950   3.07420  -0.61410    20    22    27     9
 C     2.79640   1.94140   0.11160    21    22    24    12
 C     1.75750   2.75020   0.38640    22    21    20    28
 C     3.50920  -0.02990   0.69980    23    24    15    35
 C     3.05960   1.12340   1.16930    24    23    21    34
 C    -0.93360   3.01480   0.96320    25    36    27    26
 C    -0.05680   2.45750   1.90230    26    28    30    25
 C    -0.47470   3.28690  -0.31110    27     3    25    20
 C     1.28160   2.34750   1.65240    28    26    34    22
 C    -0.89510  -0.95580   2.60160    29    41    31    38
 C    -0.71710   1.39340   2.52750    30    37    26    31
 C    -0.05530   0.16940   2.80450    31    29    30    32
 C     1.36590   0.03530   2.53140    32    34    31    33
 C     1.89130  -1.24010   2.00180    33    40    35    32
 C     2.02200   1.22220   2.05490    34    24    28    32
 C     2.96670  -1.23160   1.07250    35    23    43    33
 C    -2.11040   2.31890   1.07780    36    37    25     1
 C    -2.00740   1.39340   2.04210    37    36    39    30
 C    -2.22150  -0.93080   2.07340    38    39    51    29
 C    -2.73730   0.29450   1.74070    39    37    38     4
 C     0.93900  -2.26280   1.76610    40    41    33    44
 C    -0.36090  -2.10450   2.12770    41    50    29    40
 C     1.77370  -2.77470  -0.38520    42    43    44    47
 C     2.80730  -1.96400  -0.09910    43    42    14    35
 C     0.86470  -3.08190   0.59840    44    42    48    40
 C    -0.94720  -3.03010  -0.95950    45    49    48    46
 C    -0.06710  -2.45660  -1.89700    46    47    17    45
 C     1.26630  -2.34930  -1.63860    47    46    13    42
 C    -0.48240  -3.29850   0.31800    48    50    45    44
 C    -2.13280  -2.33840  -1.06760    49    19    45    52
 C    -1.22860  -2.75330   1.32810    50    41    48    51
 C    -2.39390  -2.03510   1.23170    51    50    52    38
 C    -2.90740  -1.83000  -0.03860    52    49    51     7
