    52
C52-C1-349                                                                      
 C    -3.42480  -1.16990   0.72830     1     2    34     6
 C    -3.41390  -1.54080  -0.56220     2     3     1    13
 C    -2.40820  -2.28450  -1.00320     3     2    23     4
 C    -1.41730  -2.78320  -0.19890     4     3     8     5
 C    -1.33570  -2.42440   1.18710     5    11     6     4
 C    -2.37540  -1.52010   1.57710     6     1    36     5
 C     0.97120  -2.75980  -0.41490     7     8    24     9
 C    -0.25060  -2.73780  -0.96950     8     7     4    22
 C     1.09960  -2.64800   0.97310     9    12     7    11
 C     0.24220  -1.12730   2.53780    10    37    50    11
 C    -0.02710  -2.28060   1.73480    11     9     5    10
 C     2.34070  -2.10640   1.13870    12    47    52     9
 C    -3.40310  -0.38190  -1.30550    13    14     2    16
 C    -3.58770   0.69130  -0.47370    14    13    15    34
 C    -2.80780   1.79610  -0.69740    15    14    28    19
 C    -2.35070  -0.44170  -2.21760    16    23    13    18
 C    -0.06130   0.34460  -2.68500    17    21    18    26
 C    -1.47350   0.62780  -2.44290    18    16    19    17
 C    -1.78900   1.80610  -1.69190    19    30    15    18
 C     2.14970   1.10900  -2.04110    20    21    42    27
 C     0.85700   1.35910  -2.34200    21    20    29    17
 C    -0.47730  -1.93480  -2.09920    22    23     8    26
 C    -1.79960  -1.67860  -2.05090    23    22     3    16
 C     2.07640  -2.16290  -1.01690    24    47     7    25
 C     1.86310  -1.19700  -2.06010    25    27    24    26
 C     0.49790  -1.01070  -2.51510    26    22    25    17
 C     2.75430  -0.10460  -1.94170    27    20    49    25
 C    -2.23050   2.45700   0.36330    28    31    32    15
 C     0.51180   2.46840  -1.56620    29    30    21    39
 C    -0.77380   2.64250  -1.23550    30    29    31    19
 C    -1.05170   2.98330   0.04680    31    28    30    41
 C    -2.15870   1.89650   1.61860    32    28    33    35
 C    -2.81620   0.69760   1.80780    33    34    32    36
 C    -3.60920   0.17750   0.82310    34     1    33    14
 C    -0.81930   2.10200   1.99060    35    38    41    32
 C    -2.04190  -0.36360   2.29550    36    37    33     6
 C    -0.74040  -0.16570   2.70250    37    36    10    38
 C    -0.11830   1.07970   2.59400    38    35    46    37
 C     1.56270   2.66870  -0.63890    39    42    29    40
 C     1.25520   2.65900   0.75910    40    41    39    45
 C    -0.10980   2.84410   1.03830    41    31    35    40
 C     2.61150   1.94560  -1.08190    42    43    39    20
 C     3.48420   1.26920  -0.34820    43    42    44    49
 C     3.18610   1.08990   0.98850    44    43    51    45
 C     2.03480   1.72350   1.55210    45    44    46    40
 C     1.24280   0.89530   2.41860    46    38    50    45
 C     3.01790  -1.94170  -0.03220    47    48    12    24
 C     3.81750  -0.85880   0.02570    48    49    47    51
 C     3.73220   0.04670  -0.94410    49    48    43    27
 C     1.49870  -0.48550   2.53280    50    52    46    10
 C     3.46830  -0.24680   1.22250    51    52    44    48
 C     2.59540  -1.02030   1.92360    52    51    50    12
