    52
C52-C1-223                                                                      
 C    -3.42480   1.20640   0.76310     1     2    35     6
 C    -3.33760   1.17740  -0.57230     2     1     5    22
 C    -0.72870   0.87230  -2.76500     3     4    12    11
 C    -1.96700   0.85680  -2.23670     4     3     5    21
 C    -2.32390   1.77930  -1.25270     5     2     4     9
 C    -2.32800   1.67230   1.44890     6     1     8    36
 C    -0.11090   2.48770   1.49760     7    17     8    42
 C    -1.33540   2.46170   0.83540     8     7     6     9
 C    -1.30120   2.55680  -0.63640     9     5    10     8
 C    -0.00470   2.64480  -1.27800    10    18    11     9
 C     0.25790   1.77450  -2.37480    11     3    14    10
 C    -0.09620  -0.28950  -3.02920    12    15     3    19
 C     2.52500   1.32650  -1.67350    13    16    14    30
 C     1.50580   1.11720  -2.55080    14    15    13    11
 C     1.22160  -0.15990  -2.90790    15    12    14    32
 C     2.36280   2.28050  -0.72510    16    49    13    18
 C     1.03370   2.84980   0.86550    17    52     7    18
 C     1.12630   2.88410  -0.49230    18    17    16    10
 C    -0.53980  -1.48710  -2.54580    19    12    24    20
 C    -1.79300  -1.55700  -1.89890    20    19    21    27
 C    -2.60240  -0.37730  -1.93770    21    22     4    20
 C    -3.51790  -0.11830  -0.97510    22    21    23     2
 C    -3.67850  -0.88540   0.12910    23    35    22    28
 C     0.63310  -2.11780  -2.12690    24    25    19    32
 C     0.55580  -2.84280  -0.98210    25    29    24    26
 C    -0.62280  -2.85390  -0.21280    26    27    25    37
 C    -1.83770  -2.29300  -0.64450    27    26    28    20
 C    -2.71820  -1.84600   0.37020    28    23    27    39
 C     1.61270  -2.79670  -0.13770    29    43    25    33
 C     3.17740   0.23100  -1.03100    30    13    46    31
 C     2.78930  -1.11540  -1.35850    31    33    32    30
 C     1.76540  -1.26790  -2.32640    32    15    31    24
 C     2.73200  -1.98280  -0.25700    33    29    48    31
 C    -2.78610  -0.40660   2.05250    34    35    39    36
 C    -3.70650  -0.04180   1.18560    35    34     1    23
 C    -1.92860   0.63440   2.34930    36    34    41     6
 C    -0.20120  -2.75570   1.14120    37    43    38    26
 C    -0.88050  -1.89900   2.02360    38    39    37    40
 C    -2.18190  -1.58640   1.67600    39    34    38    28
 C    -0.04800  -0.88340   2.68940    40    45    41    38
 C    -0.60210   0.45260   2.72240    41    36    42    40
 C     0.28800   1.50720   2.45480    42    51    41     7
 C     1.14700  -2.78600   1.11650    43    44    29    37
 C     1.92850  -1.98200   1.80820    44    43    48    45
 C     1.37380  -0.97930   2.54570    45    44    50    40
 C     3.45110   0.64390   0.31040    46    49    47    30
 C     3.19610  -0.23950   1.35820    47    48    46    50
 C     2.94680  -1.52790   1.03820    48    47    44    33
 C     2.95450   1.91380   0.43030    49    52    16    46
 C     2.22770   0.11680   2.35480    50    51    45    47
 C     1.67490   1.37480   2.34250    51    52    50    42
 C     2.11480   2.25890   1.42330    52    49    51    17
