    52
C52-C1-59                                                                       
 C     3.49920  -0.90340   1.18820     1     2     6    44
 C     3.10000   0.26750   1.69330     2     1    31     9
 C     1.50040  -2.71520  -0.84780     3    20     4    33
 C     2.65090  -2.30770  -0.27030     4     3    43     6
 C     1.48260   1.75550   1.76670     5     9    13    21
 C     2.56600  -1.89130   1.08110     6     1     4     7
 C     1.28390  -1.82230   1.68960     7    19     6     8
 C     0.86170  -0.55470   2.26100     8     9    11     7
 C     1.83140   0.46510   2.16530     9     2     5     8
 C    -1.54790  -1.17340   1.88520    10    18    15    11
 C    -0.53790  -0.20450   2.27170    11     8    10    12
 C    -0.89420   1.19200   2.03500    12    17    13    11
 C     0.13020   2.11240   1.65400    13     5    14    12
 C    -0.19270   3.00210   0.59230    14    22    27    13
 C    -2.86360  -0.81810   1.54500    15    16    10    51
 C    -3.19460   0.50780   1.48560    16    17    47    15
 C    -2.20420   1.44030   1.57970    17    16    26    12
 C    -1.07240  -2.32440   1.24140    18    19    10    49
 C     0.27840  -2.58320   1.12260    19    18    20     7
 C     0.44320  -3.14530  -0.12830    20    52     3    19
 C     2.54250   2.21480   0.92470    21    31    23     5
 C     0.78090   3.03190  -0.35870    22    25    23    14
 C     2.06670   2.65280  -0.28190    23    22    21    32
 C    -1.11400   2.37290  -1.28210    24    25    38    27
 C     0.20230   2.49780  -1.43380    25    24    22    36
 C    -2.54350   2.35960   0.57100    26    27    28    17
 C    -1.44470   2.88670  -0.00280    27    26    14    24
 C    -3.56970   1.74100  -0.11060    28    47    26    37
 C     4.07490   0.66210  -0.19700    29    44    31    30
 C     3.20360   0.78330  -1.28800    30    32    29    34
 C     3.54350   1.28900   0.91810    31     2    21    29
 C     2.28510   1.79520  -1.38280    32    30    36    23
 C     0.88780  -1.92610  -1.83430    33    42    35     3
 C     2.78580  -0.49320  -1.70760    34    43    30    35
 C     1.46010  -0.70380  -2.20440    35    33    34    40
 C     1.04990   1.62180  -2.00670    36    25    32    40
 C    -3.03130   1.04590  -1.22000    37    45    38    28
 C    -1.78020   1.27120  -1.80340    38    24    37    39
 C    -0.92300   0.18970  -2.29050    39    41    38    40
 C     0.52830   0.37350  -2.40200    40    36    35    39
 C    -1.42670  -1.12530  -1.98640    41    42    46    39
 C    -0.48750  -2.12350  -1.73230    42    52    33    41
 C     3.47730  -1.38930  -0.87440    43    44     4    34
 C     4.16850  -0.67180   0.01740    44    43    29     1
 C    -3.50450  -0.22860  -1.06200    45    46    37    48
 C    -2.66760  -1.27180  -1.32450    46    45    41    50
 C    -4.20330   0.77290   0.60150    47    48    28    16
 C    -4.33800  -0.41700   0.00980    48    47    51    45
 C    -1.78620  -2.82170   0.11330    49    52    50    18
 C    -2.91840  -2.18420  -0.26120    50    49    51    46
 C    -3.69810  -1.46430   0.59880    51    48    50    15
 C    -0.74230  -3.03750  -0.71520    52    20    49    42
