    52
C52-C1-72                                                                       
 C    -1.14460   2.67610   1.13600     1     9     6     2
 C    -1.97440   1.67270   1.60990     2     1     3     7
 C    -3.04980   1.32980   0.73600     3    37     4     2
 C    -2.94350   1.64280  -0.64770     4     5    40     3
 C    -1.90720   2.44170  -1.06030     5     6     4    50
 C    -1.15760   3.12590  -0.17450     6     5    10     1
 C    -1.33060   0.57120   2.33990     7     8    13     2
 C    -1.98240  -0.66950   2.24520     8    36     7    14
 C     0.17550   2.68140   1.44410     9    12     1    11
 C     0.12090   3.27830  -0.58570    10    11     6    45
 C     0.95870   3.13510   0.42850    11    10    26     9
 C     0.83510   1.70670   2.09350    12     9    22    13
 C     0.11170   0.56080   2.49570    13    12    19     7
 C    -1.21920  -1.81130   1.92920    14    15    20     8
 C    -2.00150  -2.54320   1.06430    15    28    33    14
 C     0.78720  -2.55050   0.79690    16    17    32    20
 C     2.14160  -2.38000   0.56580    17    21    16    41
 C     2.24410  -0.59620   2.02170    18    21    23    19
 C     0.87500  -0.66340   2.35350    19    18    20    13
 C     0.15790  -1.81160   1.88280    20    14    19    16
 C     2.93300  -1.54900   1.32140    21    43    18    17
 C     2.13150   1.68190   1.58370    22    23    12    26
 C     2.89380   0.58510   1.64540    23    22    24    18
 C     3.81440   0.27760   0.67180    24    43    23    25
 C     3.44980   0.74410  -0.60360    25    47    27    24
 C     2.11690   2.46030   0.40040    26    11    22    27
 C     2.53370   1.78900  -0.78470    27    25    26    46
 C    -3.21170  -1.98800   0.96920    28    15    36    30
 C    -2.37490  -2.16690  -1.04240    29    31    30    33
 C    -3.49230  -1.74150  -0.33460    30    28    38    29
 C    -1.78750  -1.34570  -1.98450    31    29    34    39
 C    -0.06680  -2.76640  -0.35720    32    33    35    16
 C    -1.44290  -2.75680  -0.16460    33    15    32    29
 C    -0.42880  -1.37990  -2.23940    34    31    35    48
 C     0.47770  -2.22010  -1.57570    35    42    34    32
 C    -3.22300  -0.83720   1.65360    36    28    37     8
 C    -3.65720   0.11910   0.81330    37    36     3    38
 C    -3.84350  -0.42230  -0.43560    38    40    30    37
 C    -2.25580  -0.03500  -2.14350    39    49    40    31
 C    -3.26970   0.45090  -1.31230    40    38    39     4
 C     2.71720  -2.29690  -0.69310    41    44    42    17
 C     1.81800  -1.90720  -1.64390    42    41    35    51
 C     3.98680  -1.06940   0.60720    43    44    24    21
 C     3.80300  -1.47660  -0.64440    44    43    47    41
 C     0.30800   2.45780  -1.67440    45    10    50    46
 C     1.48860   1.66780  -1.80760    46    45    52    27
 C     3.41570  -0.40440  -1.37380    47    44    51    25
 C    -0.00520  -0.08150  -2.59660    48    49    34    52
 C    -1.13520   0.71470  -2.47160    49    50    39    48
 C    -0.97400   1.98690  -2.00150    50    49     5    45
 C     2.25970  -0.63210  -2.07530    51    47    52    42
 C     1.32220   0.34810  -2.37670    52    51    48    46
