    52
C52-C1-412                                                                      
 C    -3.21910  -0.68430  -1.23230     1    34     2     3
 C    -3.14610   0.66970  -1.12580     2     1    15    37
 C    -2.16580  -1.14550  -1.98950     3     1     8     4
 C    -1.34310  -2.24710  -1.57880     4    11     3     5
 C    -1.71810  -2.70430  -0.26910     5    33     6     4
 C    -0.69530  -2.93050   0.64830     6     7     5    22
 C     0.59360  -3.06990   0.26970     7     6    16    12
 C    -1.56860   0.01710  -2.50440     8     9     3    15
 C    -0.25830   0.01400  -2.84410     9     8    10    52
 C     0.52550  -1.13430  -2.65450    10    21     9    11
 C     0.04670  -2.25190  -1.92910    11    10    12     4
 C     1.03000  -2.77030  -1.02910    12     7    20    11
 C    -1.67980   2.74930  -0.21680    13    48    36    14
 C    -1.34950   2.26730  -1.53400    14    15    13    51
 C    -2.13440   1.15940  -1.91350    15     2     8    14
 C     1.56200  -2.66990   1.12700    16    17     7    24
 C     2.64980  -2.27690   0.43010    17    16    18    20
 C     3.13710  -1.18940   1.06970    18    17    31    45
 C     2.71550  -1.14180  -1.60630    19    21    20    44
 C     2.35810  -2.27380  -0.90290    20    17    19    12
 C     1.79410  -0.64990  -2.46580    21    47    19    10
 C    -1.00470  -2.17480   1.81260    22    23    25     6
 C    -2.23980  -1.70240   1.60520    23    22    33    29
 C     1.29730  -1.80650   2.18150    24    31    16    25
 C    -0.01200  -1.42640   2.48100    25    24    22    27
 C     0.83060   0.91310   2.59840    26    30    32    27
 C    -0.31330  -0.01130   2.72880    27    25    26    28
 C    -1.67090   0.45870   2.37870    28    29    39    27
 C    -2.64670  -0.42740   1.87980    29    23    35    28
 C     0.58090   2.18640   2.08390    30    38    42    26
 C     2.31040  -0.90580   2.10640    31    32    18    24
 C     2.11420   0.42210   2.22170    32    31    26    40
 C    -2.75610  -2.12450   0.41880    33    34    23     5
 C    -3.55600  -1.15970  -0.02040    34    33     1    35
 C    -3.54490  -0.10610   0.85610    35    37    34    29
 C    -2.53930   2.02270   0.64480    36    37    13    39
 C    -3.37390   1.06710   0.17380    37    36    35     2
 C    -0.67550   2.53020   1.70250    38    39    48    30
 C    -1.76150   1.75790   1.80900    39    38    28    36
 C     2.92720   1.00070   1.19090    40    41    45    32
 C     2.44950   2.14330   0.59060    41    42    40    46
 C     1.38120   2.76950   1.11710    42    41    49    30
 C     2.67750   1.12370  -1.53420    43    47    46    44
 C     3.29520  -0.00560  -0.96160    44    45    43    19
 C     3.47440  -0.03930   0.42350    45    18    44    40
 C     2.27720   2.22090  -0.80380    46    43    41    50
 C     1.78200   0.68690  -2.45350    47    21    43    52
 C    -0.65080   3.20640   0.52910    48    49    13    38
 C     0.61030   3.31280   0.14650    49    48    42    50
 C     1.03390   2.86500  -1.06280    50    49    46    51
 C     0.04920   2.29880  -1.94390    51    52    50    14
 C     0.51810   1.16930  -2.64580    52    47     9    51
