    52
C52-C1-76                                                                       
 C    -0.37660   2.99640  -0.81590     1     7    35     2
 C     0.64160   2.56270  -1.60440     2     1    30     3
 C     0.46680   1.32830  -2.27530     3     2     4    10
 C     1.64640   0.47630  -2.26980     4     6     5     3
 C     2.81650   0.85930  -1.51600     5    29    16     4
 C     1.41700  -0.89550  -2.27010     6    14     4    12
 C    -1.60000   2.48870  -0.74440     7     1     9    41
 C    -3.11620   0.75240  -1.10840     8    22     9    13
 C    -1.97490   1.42300  -1.56360     9     7     8    10
 C    -0.87840   0.74900  -2.26230    10    11     9     3
 C    -1.01020  -0.68670  -2.27220    11    12    23    10
 C     0.13890  -1.45040  -2.22140    12    11     6    21
 C    -3.78610   0.99990   0.11030    13    52    40     8
 C     2.23120  -1.77460  -1.61390    14    17    15     6
 C     3.25420  -1.42730  -0.77800    15    14    16    24
 C     3.47760  -0.07100  -0.67540    16    15     5    27
 C     1.50750  -2.78920  -1.11620    17    18    14    21
 C     1.96460  -3.06090   0.11590    18    17    50    24
 C    -2.08680  -2.38680  -0.84640    19    48    20    23
 C    -0.83960  -2.87890  -0.53710    20    19    21    49
 C     0.20210  -2.63400  -1.44090    21    17    20    12
 C    -3.25200  -0.59820  -1.31110    22    23    51     8
 C    -2.15720  -1.27760  -1.73010    23    22    11    19
 C     3.06710  -2.24210   0.32810    24    25    15    18
 C     2.79550  -1.56430   1.46570    25    45    24    26
 C     2.95240  -0.22000   1.62570    26    25    27    33
 C     3.48090   0.54290   0.60500    27    28    26    16
 C     3.03520   1.79780   0.45550    28    27    29    31
 C     2.76590   2.04790  -0.85230    29    30    28     5
 C     1.76390   2.89710  -0.89960    30    29     2    32
 C     2.03620   2.40310   1.21590    31    32    28    34
 C     1.39120   3.26670   0.36690    32    35    30    31
 C     1.74430   0.26110   2.21720    33    42    34    26
 C     1.22630   1.56060   2.03730    34    33    31    37
 C     0.07530   3.37480   0.40660    35    32     1    38
 C    -1.07740   0.56400   2.22900    36    39    43    37
 C    -0.22010   1.72560   2.05700    37    38    36    34
 C    -0.79780   2.77870   1.25880    38    35    41    37
 C    -2.40970   0.62580   1.77170    39    44    40    36
 C    -2.93030   1.65670   0.97700    40    41    13    39
 C    -2.00890   2.55150   0.60850    41    40    38     7
 C     0.88540  -0.83840   2.33640    42    45    43    33
 C    -0.49650  -0.75700   2.27440    43    42    36    47
 C    -3.15740  -0.45890   1.41750    44    39    52    46
 C     1.56170  -1.91880   1.86860    45    25    42    50
 C    -2.50050  -1.64600   1.20470    46    44    47    48
 C    -1.18930  -1.86340   1.60810    47    46    49    43
 C    -3.10000  -2.14360   0.04820    48    51    19    46
 C    -0.38540  -2.79830   0.84570    49    50    47    20
 C     0.98900  -2.87360   1.07810    50    45    18    49
 C    -4.00600  -1.20540  -0.34140    51    52    48    22
 C    -4.17890  -0.22660   0.53620    52    51    13    44
