    52
C52-C1-53                                                                       
 C    -2.30170   2.32330   0.06480     1     3     2    42
 C    -3.43910   1.64380   0.40790     2    39     1    10
 C    -1.23140   2.39380   0.88560     3     1     4    11
 C     0.01990   2.66450   0.43010     4     3    47     6
 C     1.67420   2.28890  -1.17860     5     6    52    31
 C     0.33910   2.53640  -0.95220     6     5    41     4
 C    -3.89930  -0.44580   0.80410     7    38     8    10
 C    -3.12230  -1.58280   0.79890     8     7     9    16
 C    -2.01830  -1.78350   1.60660     9    17     8    13
 C    -3.28240   0.65940   1.39460    10     7     2    12
 C    -1.10510   1.52890   1.97470    11    22     3    12
 C    -2.09120   0.55150   2.13640    12    11    13    10
 C    -1.49150  -0.70110   2.33350    13    12     9    24
 C    -1.69420  -2.28320  -0.95710    14    16    15    26
 C    -0.76820  -2.82400  -0.09820    15    19    14    17
 C    -2.91690  -1.82310  -0.57050    16    25    14     8
 C    -0.90970  -2.51470   1.25250    17     9    18    15
 C     0.23570  -2.08560   1.89880    18    21    17    24
 C     0.48610  -2.76320  -0.64190    19    20    15    32
 C     1.63100  -2.68910   0.09350    20    37    19    21
 C     1.50970  -2.24790   1.41840    21    18    51    20
 C     0.26130   1.37340   2.19390    22    47    11    23
 C     0.87480   0.14790   2.54200    23    22    24    50
 C    -0.10280  -0.88250   2.51330    24    18    13    23
 C    -3.54260  -0.82550  -1.24470    25    16    38    28
 C    -0.93210  -1.58600  -1.90750    26    32    14    27
 C    -1.37600  -0.30930  -2.31660    27    28    26    30
 C    -2.71260   0.01020  -2.00020    28    40    25    27
 C     1.07720   0.29740  -2.37030    29    31    30    33
 C    -0.32180   0.68480  -2.35470    30    27    29    41
 C     2.08430   1.22290  -1.98600    31    34     5    29
 C     0.39500  -1.91200  -1.76660    32    26    33    19
 C     1.46650  -1.08480  -2.12630    33    32    35    29
 C     3.35750   0.87880  -1.56350    34    36    43    31
 C     2.72180  -1.35410  -1.51680    35    36    37    33
 C     3.65570  -0.38980  -1.27130    36    34    35    44
 C     2.74880  -2.13210  -0.37440    37    20    46    35
 C    -4.35920  -0.09120  -0.43610    38    39    25     7
 C    -4.07680   1.18250  -0.69360    39    38     2    40
 C    -3.09660   1.28420  -1.64020    40    39    42    28
 C    -0.70450   1.95120  -1.71740    41    42     6    30
 C    -2.04060   2.08400  -1.29970    42    40    41     1
 C     3.70250   1.60730  -0.47890    43    52    34    45
 C     4.13700  -0.47970   0.03260    44    46    45    36
 C     3.99730   0.77360   0.55330    45    43    44    49
 C     3.47230  -1.50350   0.59170    46    44    37    51
 C     0.95470   2.22870   1.36410    47    48    22     4
 C     2.25230   2.07630   1.05880    48    47    52    49
 C     2.99330   0.97320   1.51930    49    48    45    50
 C     2.24810  -0.07950   2.15150    50    51    49    23
 C     2.57420  -1.37410   1.64860    51    46    21    50
 C     2.66500   2.38420  -0.20290    52    43    48     5
