    52
C52-C1-118                                                                      
 C    -3.55360  -1.54560  -0.57710     1    34     2     3
 C    -4.28020  -0.57540   0.04330     2     7     1    32
 C    -2.62350  -2.13900   0.23630     3     1     4    12
 C    -1.37850  -2.59950  -0.19360     4     6     3    35
 C     0.88480  -2.91790   0.42050     5     6    48    39
 C    -0.39110  -2.72590   0.75000     6     5     4    13
 C    -3.67830  -0.44230   1.24530     7     8     2    12
 C    -3.28350   0.82740   1.39650     8     7    11    30
 C    -0.36500   2.56300   1.09280     9    10    17    22
 C    -1.64520   2.21850   1.10910    10     9    11    20
 C    -2.08210   1.18800   1.91600    11     8    10    15
 C    -2.66940  -1.36740   1.44090    12     7    14     3
 C    -0.37240  -1.88860   1.88870    13    14    27     6
 C    -1.45500  -1.07160   2.11770    14    13    12    15
 C    -1.10090   0.29090   2.42250    15    11    14    16
 C     0.29960   0.66730   2.45180    16    17    15    28
 C     0.58540   1.91930   1.87420    17    29     9    16
 C    -2.11590   1.01630  -1.96770    18    31    19    41
 C    -1.66810   2.12250  -1.22480    19    18    23    20
 C    -2.44790   2.25450  -0.02830    20    30    10    19
 C     1.60050   2.91620   0.19010    21    24    22    29
 C     0.27660   2.97810  -0.06730    22    21     9    23
 C    -0.28720   2.43600  -1.25270    23    19    22    26
 C     2.56880   2.51080  -0.60500    24    21    47    25
 C     2.05380   1.76090  -1.65150    25    42    24    26
 C     0.68700   1.62780  -1.97720    26    25    40    23
 C     0.97340  -1.58350   2.10850    27    48    13    28
 C     1.41710  -0.25990   2.34410    28    27    16    51
 C     1.78240   2.21460   1.34500    29    17    52    21
 C    -3.57200   1.49640   0.22160    30    32    20     8
 C    -3.29090   0.35290  -1.66440    31    32    34    18
 C    -4.14670   0.61690  -0.64910    32    31    30     2
 C    -1.67700  -1.16980  -2.03520    33    34    35    41
 C    -2.95870  -0.96020  -1.64750    34    31    33     1
 C    -0.83940  -2.13580  -1.48070    35    33    38     4
 C     2.49070  -0.56220  -1.95410    36    42    43    37
 C     1.12930  -0.82430  -2.24220    37    36    40    38
 C     0.57070  -2.06330  -1.69700    38    39    35    37
 C     1.44620  -2.74260  -0.81160    39     5    44    38
 C     0.23220   0.31170  -2.38510    40    41    26    37
 C    -1.13350   0.08360  -2.35390    41    40    33    18
 C     2.90560   0.70370  -1.68850    42    25    36    45
 C     3.30420  -1.34790  -1.16750    43    44    36    46
 C     2.73410  -2.35710  -0.54200    44    43    49    39
 C     3.88000   0.75540  -0.71170    45    47    46    42
 C     3.97000  -0.51500  -0.27730    46    45    43    50
 C     3.51410   1.77530   0.07480    47    45    24    52
 C     1.72760  -2.39770   1.33440    48    49     5    27
 C     2.88460  -2.08360   0.79150    49    48    50    44
 C     3.46730  -0.86910   0.98890    50    49    46    51
 C     2.73850   0.10850   1.76350    51    52    50    28
 C     2.88960   1.43150   1.28860    52    29    47    51
