    52
C52-C1-185                                                                      
 C    -2.32290   0.06470   2.15230     1     2     4    35
 C    -2.80440   1.25400   1.67640     2    13     8     1
 C    -0.45190  -1.33060   2.37200     3    10     4    36
 C    -0.98980  -0.06070   2.55350     4     3     1     6
 C     1.41130   0.78200   2.38710     5     9    11     6
 C    -0.03130   1.03280   2.42990     6     7     4     5
 C    -0.55010   2.12060   1.61030     7     8    17     6
 C    -1.86500   2.12160   1.19840     8     2     7    14
 C     2.24580   1.62890   1.64920     9    16    12     5
 C     0.88490  -1.49380   2.30570    10    41     3    11
 C     1.85920  -0.55860   2.34650    11    10     5    50
 C     3.35990   1.19390   0.93250    12    52    47     9
 C    -3.79320   1.08200   0.81790    13     2    15    18
 C    -2.25850   2.34050  -0.16010    14    15    22     8
 C    -3.46240   1.69620  -0.33830    15    20    13    14
 C     1.66130   2.53090   0.81780    16    17    48     9
 C     0.34140   2.69000   0.72360    17    16     7    21
 C    -3.99750  -0.24080   0.63750    18    13    19    35
 C    -3.94040  -0.40060  -0.71320    19    23    18    20
 C    -3.54550   0.78380  -1.32560    20    15    27    19
 C     0.04780   2.69300  -0.66080    21    22    28    17
 C    -1.19680   2.31590  -1.10180    22    21    14    26
 C    -3.10520  -1.33660  -1.18080    23    19    24    33
 C    -2.28130  -0.79230  -2.09200    24    25    23    27
 C    -1.10920  -1.43070  -2.14400    25    24    31    37
 C    -1.23590   1.30470  -2.14400    26    27    22    30
 C    -2.44120   0.56090  -2.13670    27    24    20    26
 C     1.26020   2.39420  -1.27690    28    48    21    29
 C     1.31830   1.31530  -2.19210    29    28    45    30
 C     0.04550   0.68730  -2.50110    30    29    26    31
 C     0.06130  -0.78540  -2.50820    31    25    32    30
 C     1.23410  -1.43370  -2.14500    32    46    31    38
 C    -2.34990  -2.21100  -0.44320    33    23    37    34
 C    -2.30310  -2.01780   0.96090    34    36    35    33
 C    -3.06480  -0.92900   1.43940    35    18    34     1
 C    -1.04850  -2.27120   1.50180    36    34    40     3
 C    -1.14180  -2.43010  -1.14100    37    39    33    25
 C     1.27140  -2.45380  -1.15790    38    39    43    32
 C     0.04900  -2.82960  -0.56540    39    37    40    38
 C     0.05430  -2.83450   0.83250    40    41    39    36
 C     1.21390  -2.45470   1.43510    41    10    44    40
 C     3.21210  -1.31770  -1.11910    42    46    51    43
 C     2.49700  -2.27990  -0.46880    43    42    44    38
 C     2.43210  -2.18610   0.91340    44    41    43    50
 C     2.54130   0.57920  -2.09360    45    46    49    29
 C     2.40420  -0.77390  -2.05490    46    32    42    45
 C     3.39370   1.79810  -0.30920    47    48    49    12
 C     2.29060   2.54490  -0.36860    48    47    16    28
 C     3.60560   0.82830  -1.20440    49    47    51    45
 C     2.94230  -1.02600   1.54910    50    52    44    11
 C     3.92800  -0.32970  -0.52480    51    42    49    52
 C     3.72240  -0.13180   0.83250    52    12    50    51
