    52
C52-C1-158                                                                      
 C    -3.40730   1.07860  -0.78110     1     2    31     9
 C    -3.39440   1.68810   0.42130     2     4     1     3
 C    -2.40090   2.63490   0.40090     3    34     2     5
 C    -3.13880   0.85920   1.44680     4     2     6     7
 C    -1.52170   2.39970   1.45850     5     6     3    22
 C    -2.03650   1.30460   2.09000     6    18     4     5
 C    -3.06220  -0.51040   1.36830     7     4    11     8
 C    -3.25230  -1.19130   0.11650     8    10     9     7
 C    -3.29960  -0.28020  -0.99370     9     1    26     8
 C    -2.49170  -2.34970  -0.05110    10    13    24     8
 C    -1.96460  -0.87660   2.18770    11    12    18     7
 C    -1.24340  -1.99560   1.92850    12    13    11    14
 C    -1.58260  -2.79370   0.89080    13    27    12    10
 C     0.15260  -1.98710   2.01650    14    12    16    44
 C     2.18880  -0.79720   1.99040    15    19    16    48
 C     0.86890  -0.84170   2.41290    16    15    14    17
 C     0.12260   0.38190   2.59890    17    18    16    20
 C    -1.27510   0.29150   2.55150    18     6    17    11
 C     2.84620   0.39320   1.83350    19    49    15    23
 C     0.72970   1.60850   2.07070    20    23    22    17
 C     0.37570   2.94080   0.09100    21    50    33    22
 C    -0.13180   2.54100   1.36890    22     5    21    20
 C     2.08080   1.53090   1.68920    23    19    20    52
 C    -1.75900  -2.54090  -1.21680    24    25    28    10
 C    -1.59280  -1.55490  -2.12940    25    24    26    35
 C    -2.36120  -0.43540  -2.04870    26    25    30     9
 C    -0.44850  -3.27360   0.34790    27    28    13    44
 C    -0.55230  -3.10560  -0.96830    28    27    24    39
 C    -0.39770   0.93290  -2.56470    29    30    32    37
 C    -1.78190   0.80400  -2.31120    30    31    26    29
 C    -2.46240   1.70350  -1.54210    31     1    30    34
 C     0.21110   2.06220  -1.92370    32    43    33    29
 C    -0.50370   2.83970  -1.00120    33    34    32    21
 C    -1.84280   2.70520  -0.84360    34    33     3    31
 C    -0.21200  -1.48400  -2.39920    35    25    37    39
 C     1.77430  -0.18420  -2.29370    36    42    37    38
 C     0.41800  -0.24580  -2.64770    37    36    35    29
 C     2.44790  -1.21990  -1.60070    38    46    40    36
 C     0.44700  -2.49940  -1.65480    39    28    40    35
 C     1.71600  -2.29670  -1.09200    40    38    39    45
 C     3.43710   0.72870  -1.06220    41    42    46    51
 C     2.37400   1.00500  -1.86680    42    41    43    36
 C     1.53610   2.04590  -1.55180    43    42    32    50
 C     0.66880  -2.84340   1.00580    44    27    45    14
 C     1.86860  -2.51180   0.35550    45    48    44    40
 C     3.45180  -0.62640  -0.88990    46    47    38    41
 C     3.73490  -0.88570   0.40860    47    49    46    48
 C     2.76840  -1.66110   1.01560    48    47    45    15
 C     3.86980   0.33620   0.96860    49    19    51    47
 C     1.66930   2.63960  -0.27950    50    21    52    43
 C     3.70010   1.37410   0.12130    51    49    41    52
 C     2.65730   2.16530   0.56150    52    51    50    23
