    52
C52-C1-159                                                                      
 C    -0.57750   2.64630   0.30310     1     3    19     8
 C     1.76160   2.49490  -0.10220     2    37     3    10
 C     0.68900   2.50520   0.81800     3     1     2     4
 C     0.84600   1.68340   2.00410     4     6     3     5
 C    -0.36300   0.98620   2.40760     5     7    20     4
 C     2.15000   1.11570   2.14970     6    36    39     4
 C    -0.15200  -0.41380   2.59950     7    38    50     5
 C    -0.81410   2.43060  -1.07500     8    13     9     1
 C     0.17070   1.89690  -1.87270     9     8    10    14
 C     1.48590   2.06120  -1.43230    10    11     9     2
 C     2.55960   1.23900  -1.76860    11    24    12    10
 C     2.19190   0.04380  -2.33070    12    11    15    25
 C    -2.09930   2.08010  -1.18170    13     8    17    27
 C    -0.21570   0.69320  -2.59020    14    15     9    28
 C     0.86460  -0.19750  -2.70550    15    29    12    14
 C    -3.76420   1.31520  -0.01260    16    17    18    44
 C    -2.74280   2.17270  -0.00010    17    16    13    19
 C    -3.84920   0.46210   1.03620    18    16    49    21
 C    -1.75810   2.29240   0.94650    19    17     1    20
 C    -1.69150   1.34040   1.98740    20    19    21     5
 C    -2.76710   0.39040   1.92780    21    52    18    20
 C     4.10100   0.17750  -0.23170    22    31    24    23
 C     3.54700  -1.03730  -0.60040    23    22    25    34
 C     3.49740   1.28700  -0.78260    24    11    37    22
 C     2.71260  -1.11740  -1.70590    25    26    23    12
 C     1.66480  -1.96460  -1.71020    26    29    25    32
 C    -2.58810   1.01930  -1.89610    27    13    44    28
 C    -1.58290   0.18410  -2.43590    28    27    14    47
 C     0.61360  -1.48750  -2.38230    29    26    48    15
 C     3.29890  -0.71600   1.57490    30    31    39    34
 C     3.98490   0.34040   1.10490    31    30    22    36
 C     1.17780  -2.64250  -0.63540    32    26    33    40
 C     1.82860  -2.39270   0.57850    33    32    35    34
 C     3.03790  -1.65700   0.57730    34    30    33    23
 C     0.88250  -2.09930   1.58580    35    43    38    33
 C     3.26880   1.45530   1.39960    36    37    31     6
 C     3.00250   2.05410   0.22910    37    36     2    24
 C     1.08550  -0.98100   2.40410    38    39     7    35
 C     2.23280  -0.28000   2.32220    39    38    30     6
 C    -0.22190  -2.69890  -0.79460    40    42    32    48
 C    -2.42820  -2.23090   0.02920    41    51    42    46
 C    -1.11910  -2.65970   0.25720    42    40    41    43
 C    -0.49450  -2.26240   1.45970    43    35    50    42
 C    -3.69190   0.58850  -1.18630    44    45    27    16
 C    -3.83030  -0.70570  -0.83270    45    44    49    46
 C    -2.79670  -1.55950  -1.17880    46    45    47    41
 C    -1.74530  -1.22850  -2.06630    47    48    46    28
 C    -0.56920  -1.94870  -1.94890    48    29    47    40
 C    -4.04190  -0.77900   0.50310    49    51    45    18
 C    -1.14700  -1.30020   2.23280    50    52     7    43
 C    -3.17350  -1.62430   1.03720    51    49    52    41
 C    -2.43250  -0.96800   1.98760    52    50    51    21
