    52
C52-C1-219                                                                      
 C     3.06850  -1.05740  -1.31980     1     3     5     2
 C     3.66180  -0.63560  -0.14440     2    24     1    10
 C     2.41970  -0.17800  -2.12990     3     1     8     6
 C     1.09310  -2.44850  -1.37220     4     5    36     7
 C     2.37290  -2.18400  -0.95600     5    25     4     1
 C     1.13790  -0.50760  -2.65130     6    17     7     3
 C     0.38220  -1.64540  -2.28990     7     4     6    16
 C     2.39530   1.19040  -1.79210     8    12     3     9
 C     2.86400   1.65550  -0.53660     9    10     8    11
 C     3.48360   0.68340   0.27820    10    20     2     9
 C     1.94680   2.56600   0.08040    11    14    18     9
 C     1.19580   1.63850  -2.27650    12    17    13     8
 C     0.36820   2.54710  -1.72140    13    12    14    44
 C     0.76380   3.06860  -0.52200    14    22    13    11
 C    -1.67970  -2.31870  -1.17870    15    48    35    16
 C    -1.05560  -1.52510  -2.18310    16    15     7    51
 C     0.46340   0.64810  -2.78560    17    12     6    52
 C     1.58480   2.32660   1.43220    18    21    19    11
 C     2.04740   1.23880   2.09690    19    20    18    32
 C     3.05450   0.51310   1.58910    20    19    23    10
 C     0.27650   2.62860   1.52790    21    22    18    33
 C    -0.22370   3.14060   0.40270    22    21    14    47
 C     2.90310  -0.79370   1.87490    23    24    20    26
 C     3.36900  -1.53340   0.86140    24    25    23     2
 C     2.53680  -2.45130   0.36760    25    24     5    31
 C     1.61830  -0.94790   2.40240    26    23    32    30
 C    -2.55500  -0.15270   1.97760    27    37    43    28
 C    -1.23330  -0.47650   2.45220    28    34    27    29
 C    -0.67890  -1.77480   2.03020    29    39    30    28
 C     0.73920  -1.97100   1.96220    30    26    29    31
 C     1.28280  -2.71710   0.85890    31    25    36    30
 C     1.08920   0.33170   2.63520    32    26    34    19
 C    -0.67630   1.85660   2.13260    33    21    41    34
 C    -0.29700   0.59180   2.64360    34    32    33    28
 C    -0.88350  -2.81390  -0.13160    35    36    39    15
 C     0.44140  -2.91010  -0.22880    36    35    31     4
 C    -3.35510  -1.01060   1.26070    37    38    40    27
 C    -2.73730  -2.05900   0.72870    38    37    39    48
 C    -1.49580  -2.44660   1.06880    39    38    35    29
 C    -3.97610  -0.35180   0.24400    40    42    49    37
 C    -1.85630   2.05440   1.43300    41    43    33    47
 C    -3.59190   0.92170   0.28220    42    40    43    45
 C    -2.82210   1.11740   1.41430    43    41    42    27
 C    -0.96080   2.08320  -1.92450    44    46    52    13
 C    -2.99740   1.28610  -0.92860    45    46    42    50
 C    -1.98500   2.24470  -0.97290    46    45    44    47
 C    -1.52740   2.76740   0.25550    47    22    46    41
 C    -2.87420  -1.98440  -0.62860    48    49    15    38
 C    -3.58670  -0.88180  -0.93200    49    48    40    50
 C    -2.92180   0.06340  -1.68000    50    49    51    45
 C    -1.72680  -0.22750  -2.39120    51    52    50    16
 C    -0.86430   0.84390  -2.61220    52    17    51    44
