    52
C52-C1-396                                                                      
 C    -2.70990  -2.00730  -0.24710     1     2    30     9
 C    -3.52560  -0.91330  -0.12960     2     5     1     3
 C    -3.40200   0.05330  -1.13200     3    12    21     2
 C    -2.05310   0.72120   2.33670     4    52    16     6
 C    -3.51910  -0.22390   1.04810     5     2    11     6
 C    -2.55710  -0.51360   2.01420     6     4     5     7
 C    -1.64390  -1.58090   1.93590     7     6     9     8
 C    -0.28610  -1.40510   2.43150     8    10     7    51
 C    -1.80410  -2.40590   0.77250     9    34     1     7
 C     0.74650  -2.21560   1.87050    10    48    33     8
 C    -3.51220   1.13000   0.78800    11    16    12     5
 C    -3.34270   1.27020  -0.54490    12    11     3    14
 C    -0.09580   2.84830  -0.67960    13    15    18    28
 C    -2.28340   1.97010  -1.08760    14    12    20    15
 C    -1.39700   2.68950  -0.23940    15    13    17    14
 C    -2.59630   1.69600   1.56930    16    11     4    17
 C    -1.56090   2.48220   1.15580    17    16    45    15
 C     0.34760   2.24710  -1.88470    18    23    19    13
 C    -0.40910   1.25020  -2.53070    19    20    18    26
 C    -1.76290   1.18620  -2.15240    20    21    19    14
 C    -2.48000  -0.01560  -2.14650    21    22     3    20
 C    -1.78250  -1.17390  -2.32060    22    21    30    27
 C     1.68160   2.12550  -1.74550    23    24    29    18
 C     2.36920   1.04440  -2.11130    24    23    44    25
 C     1.69540  -0.05410  -2.54250    25    24    36    26
 C     0.30570   0.01010  -2.83540    26    27    25    19
 C    -0.41550  -1.17820  -2.62810    27    22    26    31
 C     1.03680   2.87050   0.17580    28    29    47    13
 C     2.14090   2.51360  -0.54280    29    23    28    43
 C    -1.97360  -2.17050  -1.40040    30    32    22     1
 C     0.19280  -2.25680  -1.93380    31    32    37    27
 C    -0.82040  -2.77060  -1.16470    32    30    34    31
 C     0.55860  -2.91950   0.67710    33    34    10    35
 C    -0.68620  -2.99000   0.16860    34    33    32     9
 C     1.69370  -2.67910  -0.13840    35    38    33    37
 C     2.31630  -1.13400  -1.85910    36    37    25    39
 C     1.51120  -2.22240  -1.47470    37    31    36    35
 C     2.61560  -2.07020   0.65490    38    48    35    41
 C     3.33680  -0.58690  -1.01440    39    44    41    36
 C     3.31010  -0.13230   1.33200    40    49    42    41
 C     3.44720  -1.04270   0.28100    41    38    39    40
 C     3.04790   1.20130   1.13600    42    40    43    46
 C     3.16760   1.69490  -0.14650    43    29    42    44
 C     3.31340   0.77790  -1.18660    44    24    39    43
 C    -0.41820   2.16930   1.91610    45    47    17    52
 C     1.89900   1.50280   1.92610    46    47    42    50
 C     0.88720   2.38560   1.49140    47    45    28    46
 C     2.04020  -1.80770   1.85300    48    49    38    10
 C     2.44230  -0.60880   2.24520    49    48    40    50
 C     1.52200   0.31030   2.61310    50    49    51    46
 C     0.16580  -0.04430   2.81210    51    52    50     8
 C    -0.75560   0.97580   2.61820    52     4    51    45
