    52
C52-C1-167                                                                      
 C     2.79600   0.89220   1.70890     1    10     3     2
 C     1.56660   1.18990   2.31960     2     4    15     1
 C     3.12510  -0.42980   1.41050     3     1    29    19
 C     0.72750   0.16870   2.70540     4     2     5    30
 C    -0.64930   0.30070   2.65030     5     4    38     6
 C    -1.30580   1.45570   2.11530     6     7     5    14
 C    -2.59700   1.21110   1.60190     7     9     6    48
 C    -3.99450  -0.21520   0.60210     8     9    47    52
 C    -3.21210  -0.03750   1.67270     9     8    37     7
 C     2.99980   1.84690   0.75660    10    17    11     1
 C     1.89420   2.64090   0.75680    11    10    13    15
 C     0.16700   2.83150  -0.79260    12    13    16    25
 C     1.49870   2.81820  -0.53990    13    12    20    11
 C    -0.41260   2.40960   1.52520    14    15     6    16
 C     0.97820   2.31130   1.72150    15    11     2    14
 C    -0.81930   2.79580   0.20290    16    49    12    14
 C     3.31110   1.52490  -0.52530    17    20    10    18
 C     3.53180   0.22840  -0.88590    18    17    19    22
 C     3.58640  -0.77210   0.10050    19    21    18     3
 C     2.35550   2.08180  -1.30460    20    17    13    27
 C     3.01760  -1.98590  -0.14690    21    24    28    19
 C     2.64100   0.01380  -1.98810    22    23    27    18
 C     2.02180  -1.20930  -2.13720    23    24    22    46
 C     2.28940  -2.20730  -1.25900    24    31    21    23
 C    -0.34090   2.08560  -1.86690    25    42    12    26
 C     0.49250   1.12260  -2.52200    26    27    25    45
 C     1.87180   1.17150  -2.20510    27    20    22    26
 C     2.22980  -2.39710   0.87670    28    29    21    32
 C     2.26400  -1.44840   1.84130    29    28    30     3
 C     1.06600  -1.15680   2.45260    30    29     4    35
 C     1.13570  -2.80980  -0.93340    31    24    39    32
 C     1.02900  -2.94150   0.42560    32    31    28    34
 C    -1.40710  -2.58140   0.21620    33    36    34    41
 C    -0.20880  -2.69760   1.02420    34    32    35    33
 C    -0.13520  -1.80990   2.14610    35    38    30    34
 C    -2.56060  -1.95360   0.77260    36    52    37    33
 C    -2.41430  -1.12290   1.89750    37    38     9    36
 C    -1.19210  -0.97790   2.44170    38    37    35     5
 C     0.10090  -2.35760  -1.68370    39    31    41    46
 C    -2.08010  -1.43860  -1.83330    40    51    41    44
 C    -1.20750  -2.35090  -1.22600    41    39    40    33
 C    -1.68260   1.89100  -1.61700    42    43    25    49
 C    -2.34160   0.76510  -2.06220    43    50    42    44
 C    -1.51210  -0.29220  -2.46090    44    43    45    40
 C    -0.13730  -0.15410  -2.70310    45    44    46    26
 C     0.65550  -1.28310  -2.44540    46    23    45    39
 C    -3.87160   0.84840  -0.21720    47     8    50    48
 C    -3.02760   1.77050   0.37260    48    49    47     7
 C    -2.01990   2.38600  -0.33760    49    48    16    42
 C    -3.41840   0.28880  -1.38950    50    43    51    47
 C    -3.24440  -1.05010  -1.24500    51    52    50    40
 C    -3.56180  -1.36700   0.01430    52    51     8    36
