    52
C52-C1-337                                                                      
 C     2.54250  -2.17710   1.05540     1    31     2     7
 C     1.56290  -2.86780   0.44860     2     4     1    36
 C    -0.74920  -2.91720   0.48200     3     4    21     6
 C     0.41260  -2.75920   1.12590     4     3     2    20
 C    -1.95820  -2.32250  -1.19440     5     6    38    51
 C    -0.73730  -2.79280  -0.92960     6     5    35     3
 C     1.90530  -1.33270   1.96150     7     1    20     8
 C     2.28350   0.02470   2.02150     8     7     9    13
 C     3.39200   0.36800   1.15420     9    10    30     8
 C     3.26090   1.53860   0.47230    10    11     9    25
 C     2.29370   2.39720   0.68530    11    10    23    14
 C    -0.18100   0.49100   2.49430    12    15    18    13
 C     1.18470   0.95080   2.25850    13    14     8    12
 C     1.28480   2.20600   1.57570    14    11    17    13
 C    -1.24300   1.36990   2.15600    15    49    16    12
 C    -1.06800   2.51860   1.37680    16    17    15    46
 C     0.18610   2.85210   1.03390    17    16    14    22
 C    -0.52880  -0.91840   2.37540    18    20    12    19
 C    -1.85950  -1.32310   1.91110    19    48    21    18
 C     0.56810  -1.73880   2.07010    20     4     7    18
 C    -1.92820  -2.38210   0.94580    21     3    51    19
 C     0.50740   3.14360  -0.30190    22    23    24    17
 C     1.78760   2.83530  -0.49330    23    22    11    27
 C    -0.42960   2.71170  -1.20910    24    22    47    29
 C     3.33750   1.35830  -0.88110    25    26    27    10
 C     3.60990   0.07270  -1.01080    26    25    30    33
 C     2.28380   1.99450  -1.47160    27    25    23    28
 C     1.31240   1.22460  -2.17960    28    29    27    32
 C    -0.02610   1.68360  -2.09670    29    40    24    28
 C     3.88690  -0.52800   0.20270    30    31    26     9
 C     3.41530  -1.75890   0.12510    31    30     1    34
 C     1.50740  -0.21720  -2.29170    32    33    28    39
 C     2.72080  -0.72720  -1.71970    33    34    26    32
 C     2.73340  -1.92340  -1.05780    34    36    33    31
 C     0.42600  -2.36150  -1.58610    35    36     6    39
 C     1.60950  -2.65240  -0.92440    36    34    35     2
 C    -3.25210  -0.62240  -1.38680    37    44    38    50
 C    -2.14820  -1.22010  -1.96510    38     5    37    41
 C     0.31850  -1.08460  -2.31750    39    41    32    35
 C    -1.14450   0.88680  -2.28090    40    29    41    42
 C    -1.01560  -0.51620  -2.42440    41    38    40    39
 C    -2.26030   1.47040  -1.62090    42    44    47    40
 C    -3.80240   0.88340   0.12130    43    45    44    52
 C    -3.32760   0.71760  -1.16460    44    37    43    42
 C    -3.07660   1.70420   0.91080    45    43    49    46
 C    -2.14150   2.59170   0.48210    46    45    16    47
 C    -1.74540   2.52200  -0.86050    47    24    42    46
 C    -2.88470  -0.35980   1.73320    48    49    52    19
 C    -2.49500   0.93140   1.86210    49    48    45    15
 C    -3.68560  -1.29360  -0.25490    50    51    52    37
 C    -2.79760  -2.27580  -0.11670    51    50     5    21
 C    -3.84880  -0.37260   0.70200    52    50    43    48
