    52
C52-Cs-392                                                                      
 C     0.44330   2.78990  -0.68910     1     4     2    31
 C     1.55840   2.34690  -1.35550     2     3     1    14
 C     2.72020   2.17810  -0.66300     3    30     7     2
 C    -0.82480   2.49190  -1.11170     4     1    37     5
 C    -1.07450   1.54870  -2.15600     5     6     4    13
 C    -2.33780   0.94460  -2.06380     6    51    38     5
 C     3.32720   1.04010  -1.07280     7     3    10     8
 C     3.84230   0.31620   0.00240     8     9     7    22
 C     3.66310  -1.04610  -0.01380     9     8    12    17
 C     2.52040   0.47090  -2.05290    10    11     7    14
 C     2.36610  -0.88880  -2.04280    11    10    12    15
 C     2.99790  -1.63840  -1.07770    12    18    11     9
 C     0.09590   0.79990  -2.57800    13    14     5    16
 C     1.38940   1.28460  -2.24800    14     2    10    13
 C     1.08530  -1.41630  -2.24490    15    11    16    48
 C    -0.03390  -0.64880  -2.61330    16    52    15    13
 C     2.98260  -1.60480   1.06870    17    19    20     9
 C     2.11480  -2.56680  -0.66510    18    19    12    48
 C     2.10060  -2.55330   0.67050    19    18    17    27
 C     2.35260  -0.86630   2.03880    20    21    17    23
 C     2.52230   0.48860   2.04040    21    20    22    33
 C     3.33560   1.06500   1.07490    22    30    21     8
 C     1.07590  -1.40810   2.23150    23    20    24    27
 C    -0.03790  -0.63050   2.58620    24    25    23    32
 C    -1.28450  -1.18310   2.27400    25    40    24    26
 C    -1.46020  -2.23640   1.33540    26    28    46    25
 C     0.92350  -2.50410   1.34270    27    19    28    23
 C    -0.31170  -2.74690   0.72320    28    26    27    50
 C     1.56580   2.38250   1.37240    29    30    31    33
 C     2.72980   2.20720   0.68810    30    22     3    29
 C     0.43830   2.81450   0.71680    31    34    29     1
 C     0.08900   0.81900   2.56580    32    33    35    24
 C     1.38840   1.29990   2.24410    33    29    21    32
 C    -0.83300   2.51330   1.11950    34    31    37    35
 C    -1.08570   1.55770   2.15060    35    41    34    32
 C    -2.89550   1.91470  -0.01100    36    37    38    39
 C    -1.68610   2.53450   0.00030    37    36     4    34
 C    -3.30440   1.19760  -1.09730    38    36    42     6
 C    -3.27910   1.18870   1.09100    39    36    41    44
 C    -2.41400  -0.43560   2.16900    40    25    47    41
 C    -2.32470   0.92260   2.05750    41    40    39    35
 C    -3.97450   0.07800  -0.66360    42    44    43    38
 C    -3.29230  -0.91300  -1.31250    43    51    42    45
 C    -3.98170   0.05880   0.69620    44    42    47    39
 C    -2.65640  -1.96620  -0.67530    45    43    46    49
 C    -2.69220  -1.99660   0.71550    46    47    45    26
 C    -3.35300  -0.96430   1.34100    47    40    44    46
 C     0.93490  -2.50510  -1.34470    48    18    50    15
 C    -1.44140  -2.20190  -1.33600    49    50    45    52
 C    -0.30700  -2.73740  -0.73130    50    49    48    28
 C    -2.39280  -0.41770  -2.18750    51    52    43     6
 C    -1.28620  -1.17460  -2.30530    52    51    16    49
