    52
C52-C1-406                                                                      
 C    -3.21060  -0.63940  -0.92490     1     3    14     2
 C    -2.46460   0.01400  -1.97640     2     5     4     1
 C    -3.65560   0.10480   0.14800     3    34    21     1
 C    -2.22860   1.39520  -1.80750     4    35     2     7
 C    -1.40550  -0.71460  -2.50980     5     6     2     9
 C    -1.14690  -1.98640  -2.07650     6    18    13     5
 C    -0.91950   1.92290  -2.00930     7    38     8     4
 C     0.17730   1.17980  -2.51400     8     9     7    11
 C    -0.13110  -0.16660  -2.80240     9    49     8     5
 C     2.49740   0.44340  -1.98330    10    52    48    11
 C     1.52060   1.50310  -2.08130    11    12    10     8
 C     1.66980   2.50670  -1.06320    12    50    37    11
 C    -1.72600  -2.56040  -0.99800    13     6    14    17
 C    -2.74600  -1.86820  -0.38630    14    13    20     1
 C     0.55730  -2.61840   1.59440    15    32    16    46
 C    -0.64570  -2.94570   1.06680    16    15    17    22
 C    -0.65310  -3.14580  -0.30270    17    16    13    19
 C     0.16570  -2.23340  -2.10290    18     6    49    19
 C     0.56400  -2.96090  -1.00920    19    18    45    17
 C    -2.72090  -1.72610   1.01110    20    21    22    14
 C    -3.20780  -0.49220   1.28030    21    20     3    23
 C    -1.61540  -2.15780   1.69330    22    20    16    25
 C    -2.50500   0.45310   2.02620    23    24    21    26
 C    -2.69620   1.62400   1.35790    24    30    23    34
 C    -0.91290  -1.22860   2.50680    25    32    26    22
 C    -1.25330   0.14390   2.59080    26    23    25    28
 C     1.24730   0.61150   2.50950    27    31    33    28
 C    -0.14110   1.10610   2.49920    28    29    26    27
 C    -0.40860   2.31920   1.70860    29    30    40    28
 C    -1.67510   2.49530   1.13710    30    24    36    29
 C     2.27050   1.31930   1.85130    31    39    43    27
 C     0.38340  -1.58870   2.44780    32    33    25    15
 C     1.45760  -0.78610   2.45600    33    32    27    41
 C    -3.43610   1.42320   0.21270    34    35     3    24
 C    -2.77980   2.08500  -0.74340    35    34    36     4
 C    -1.80120   2.83550  -0.21020    36    35    38    30
 C     0.51770   3.00830  -0.46260    37    38    12    40
 C    -0.71110   2.87390  -0.99750    38    36    37     7
 C     1.92660   2.38270   1.06880    39    40    50    31
 C     0.66590   2.80470   0.93710    40    39    29    37
 C     2.42110  -1.41260   1.62400    41    42    46    33
 C     3.30720  -0.62980   0.94970    42    41    43    47
 C     3.31160   0.72790   1.14240    43    42    51    31
 C     2.59810  -1.66100  -1.09500    44    47    48    45
 C     1.80930  -2.63580  -0.42220    45    46    19    44
 C     1.77360  -2.48500   0.98200    46    15    41    45
 C     3.40560  -0.78350  -0.41710    47    52    44    42
 C     2.07300  -0.88060  -2.15690    48    49    10    44
 C     0.82930  -1.16120  -2.60400    49    48    18     9
 C     2.63540   2.36450  -0.09160    50    51    39    12
 C     3.53360   1.38090  -0.04930    51    50    52    43
 C     3.47700   0.44330  -1.00100    52    51    47    10
