    52
C52-C1-16                                                                       
 C    -3.72160  -0.49910   1.49800     1    15     2     3
 C    -2.69320  -1.42600   1.51420     2     4     1     6
 C    -4.56510  -0.24540   0.42600     3    35    27     1
 C    -2.47390  -2.18250   0.38010     4     2    36     5
 C    -1.15380  -2.42070   0.01810     5     8     4    44
 C    -1.54230  -0.92000   2.12010     6    18     2     7
 C    -0.22900  -1.35360   1.92850     7     6    25     8
 C    -0.01830  -2.21860   0.79180     8     5     9     7
 C     1.25140  -2.21790   0.20310     9    11     8    13
 C     3.60030  -1.58580   0.46680    10    14    11    50
 C     2.35500  -1.85080   0.96660    11    10     9    24
 C     2.55200  -1.28000  -1.56860    12    14    45    13
 C     1.34710  -1.88800  -1.20990    13    12    43     9
 C     3.72980  -1.30180  -0.85080    14    10    52    12
 C    -3.10230   0.64140   1.92730    15    28     1    18
 C    -1.08810   2.19830   0.99440    16    17    29    20
 C    -0.03630   2.40260   0.13340    17    23    16    34
 C    -1.80430   0.43230   2.32560    18    15     6    20
 C     0.62100   0.88520   2.20710    19    20    22    25
 C    -0.73510   1.29450   2.06290    20    18    19    16
 C     3.02170   1.05010   1.53310    21    26    22    49
 C     1.71620   1.56180   1.57770    22    23    21    19
 C     1.28520   2.22780   0.42650    23    17    46    22
 C     2.17180  -0.96620   2.03670    24    26    25    11
 C     0.87770  -0.54360   2.29780    25    24     7    19
 C     3.32880  -0.20970   1.98520    26    50    21    24
 C    -4.33860   1.09880   0.18830    27    30    28     3
 C    -3.46240   1.62980   1.08330    28    15    27    29
 C    -2.38450   2.20200   0.45910    29    28    16    32
 C    -3.74280   1.23700  -1.01890    30    31    27    32
 C    -3.66080   0.02460  -1.59860    31    30    38    35
 C    -2.55570   1.93660  -0.92750    32    30    33    29
 C    -1.39780   1.64750  -1.67370    33    34    32    37
 C    -0.18710   2.10410  -1.22710    34    40    33    17
 C    -4.20780  -0.91490  -0.71910    35    36     3    31
 C    -3.23880  -1.86880  -0.72680    36    39    35     4
 C    -1.30610   0.36930  -2.34310    37    38    33    42
 C    -2.46970  -0.40640  -2.15680    38    39    31    37
 C    -2.28830  -1.66010  -1.66050    39    44    36    38
 C     1.05600   1.71940  -1.64040    40    34    46    41
 C     1.23490   0.51890  -2.35030    41    45    40    42
 C     0.02010  -0.22510  -2.42110    42    41    37    43
 C     0.12780  -1.55650  -1.83100    43    44    13    42
 C    -1.04940  -2.08020  -1.34260    44    39    43     5
 C     2.51790  -0.02070  -2.16930    45    12    48    41
 C     2.03110   2.03950  -0.71970    46    47    40    23
 C     3.28550   1.53850  -0.70810    47    46    49    48
 C     3.66500   0.58820  -1.63830    48    52    47    45
 C     3.92260   1.21150   0.46560    49    47    51    21
 C     4.33200  -0.68630   1.19350    50    51    26    10
 C     4.84140   0.19300   0.28380    51    50    52    49
 C     4.55930  -0.22090  -0.98870    52    51    14    48
