    52
C52-D2-333                                                                      
 C    -3.27290   1.30120   0.92540     1    28     2     3
 C    -3.80130   0.64770  -0.13900     2     1     7     4
 C    -2.29450   2.24340   0.84980     3     1     6    33
 C    -3.17730   0.84340  -1.36190     4     9     5     2
 C    -2.16160   1.77490  -1.49210     5     4     6    18
 C    -1.76810   2.57410  -0.40080     6    51     3     5
 C    -3.82530  -0.69670   0.14280     7     8     2    12
 C    -3.29930  -1.32450  -0.93670     8     7    13     9
 C    -2.90250  -0.39900  -1.85470     9     8     4    20
 C    -2.17230  -1.78130   1.50660    10    12    22    11
 C    -1.78090  -2.56640   0.40070    11    15    13    10
 C    -3.19680  -0.85900   1.37420    12    28    10     7
 C    -2.30200  -2.24920  -0.85460    13     8    11    14
 C    -1.36140  -1.95840  -1.85010    14    17    13    20
 C    -0.44180  -2.85750   0.55200    15    11    23    16
 C     0.43260  -2.85410  -0.53610    16    25    17    15
 C    -0.03680  -2.28440  -1.71490    17    14    48    16
 C    -0.98220   1.50380  -2.21390    18    44     5    19
 C    -0.68530   0.19640  -2.73700    19    20    47    18
 C    -1.70600  -0.73530  -2.43930    20     9    14    19
 C     1.36200  -1.97490   1.84410    21    23    29    24
 C    -0.99340  -1.50940   2.23140    22    23    10    26
 C     0.03350  -2.28730   1.72550    23    21    22    15
 C     2.31320  -2.27550   0.85770    24    36    25    21
 C     1.77360  -2.56530  -0.39660    25    16    24    41
 C    -0.69230  -0.19550   2.73400    26    27    30    22
 C    -1.70090   0.74250   2.42280    27    28    33    26
 C    -2.89660   0.38510   1.84990    28     1    12    27
 C     1.68530  -0.73340   2.40670    29    34    21    30
 C     0.68180   0.20830   2.72210    30    29    26    31
 C     0.99240   1.51740   2.22030    31    32    39    30
 C    -0.03310   2.30810   1.71140    32    33    31    50
 C    -1.35440   1.97400   1.85180    33    32     3    27
 C     2.87950  -0.40360   1.81190    34    36    38    29
 C     3.81800  -0.69150  -0.13410    35    36    37    43
 C     3.31070  -1.34790   0.92990    36    35    34    24
 C     3.79460   0.66640   0.13470    37    40    35    38
 C     3.16360   0.85740   1.35530    38    34    39    37
 C     2.16390   1.79920   1.49500    39    38    31    49
 C     3.28260   1.31690  -0.93690    40    37    42    52
 C     2.16710  -1.78540  -1.50120    41    43    25    48
 C     2.90090   0.38580  -1.84480    42    40    43    46
 C     3.18890  -0.85700  -1.36550    43    42    41    35
 C     0.03870   2.29120  -1.69590    44    45    18    51
 C     1.36500   1.96470  -1.83140    45    44    52    46
 C     1.70000   0.73450  -2.42240    46    42    45    47
 C     0.69070  -0.20340  -2.73430    47    46    19    48
 C     0.99450  -1.51240  -2.23400    48    17    41    47
 C     1.78440   2.60440   0.40510    49    50    52    39
 C     0.44460   2.90630   0.54490    50    49    51    32
 C    -0.43700   2.89440  -0.53270    51     6    50    44
 C     2.31220   2.26980  -0.84160    52    40    49    45
