    52
C52-C1-292                                                                      
 C    -0.94890  -1.85560  -2.23130     1    39     2     7
 C    -1.90890  -0.91220  -2.24910     2     1     5    35
 C    -3.10290   1.16770  -0.87970     3     4     6    31
 C    -3.05120   1.86970   0.30320     4    13     3    18
 C    -1.49020   0.37490  -2.47360     5     2     6     9
 C    -2.07560   1.41780  -1.77770     6     5     3    16
 C     0.39810  -1.65390  -2.38720     7     1    42     8
 C     0.89610  -0.35110  -2.60640     8     7     9    11
 C    -0.12570   0.65320  -2.66330     9    49     5     8
 C     2.38360   1.36530  -1.66910    10    52    11    48
 C     2.15690   0.01130  -2.01970    11    10    12     8
 C     2.78640  -0.96310  -1.17680    12    41    50    11
 C    -3.30920   0.97530   1.25070    13    15    20     4
 C    -1.45740   1.97660   1.84200    14    15    26    18
 C    -2.33260   0.96640   2.12580    15    13    24    14
 C    -1.07140   2.35520  -1.52940    16     6    49    17
 C    -0.97760   3.03240  -0.26810    17    19    18    16
 C    -1.93640   2.61380   0.64750    18     4    17    14
 C     0.32440   3.26700   0.14450    19    46    17    25
 C    -3.50590  -0.24370   0.76400    20    13    31    21
 C    -2.66810  -1.11500   1.46810    21    33    20    24
 C    -0.13150  -1.83730   2.24210    22    23    28    32
 C     1.17510  -2.07980   2.00490    23    36    22    30
 C    -1.89790  -0.30050   2.35770    24    15    28    21
 C     0.74530   2.65310   1.36860    25    44    26    19
 C    -0.09760   1.83290   2.12190    26    14    25    27
 C     0.41420   0.53160   2.57340    27    29    28    26
 C    -0.56120  -0.56280   2.63100    28    24    22    27
 C     1.80130   0.20940   2.23170    29    30    45    27
 C     2.13880  -1.12060   1.97920    30    23    29    43
 C    -3.45660  -0.18480  -0.60740    31    35    20     3
 C    -0.84280  -2.67070   1.33230    32    33    37    22
 C    -2.09140  -2.22580   0.84530    33    21    32    34
 C    -2.27990  -2.31540  -0.56360    34    39    35    33
 C    -2.83850  -1.22220  -1.25740    35    31     2    34
 C     1.36660  -3.00070   1.04340    36    23    40    37
 C     0.14580  -3.32170   0.54640    37    36    38    32
 C    -0.01350  -3.23880  -0.82400    38    39    37    42
 C    -1.19000  -2.76850  -1.27880    39     1    38    34
 C     2.42250  -2.56940   0.32480    40    36    43    41
 C     2.22690  -2.24270  -0.98660    41    40    42    12
 C     1.02560  -2.58830  -1.56350    42    41     7    38
 C     2.98210  -1.49250   0.93130    43    50    40    30
 C     2.05810   2.34150   1.17540    44    47    45    25
 C     2.57430   1.12780   1.49480    45    44    29    51
 C     1.44400   3.16080  -0.66350    46    47    48    19
 C     2.51040   2.75200  -0.01300    47    46    52    44
 C     1.33110   2.31300  -1.74640    48    49    46    10
 C     0.10040   1.93050  -2.17610    49    48     9    16
 C     3.39630  -0.55310   0.04690    50    43    51    12
 C     3.39830   0.76400   0.37560    51    50    52    45
 C     3.15880   1.73020  -0.55750    52    47    51    10
