    52
C52-C1-130                                                                      
 C     3.68150  -1.59890   0.41950     1     2     5    33
 C     2.55800  -2.31420   0.33250     2     1    42    15
 C    -1.57070  -2.61750  -0.13870     3    16    43     4
 C    -0.19830  -2.67020   0.00950     4     3    41    14
 C     3.54620  -0.75620   1.46180     5     1     6     8
 C     3.92190   0.45290   0.98500     6     7     5    26
 C     3.06360   1.44900   1.24200     7     6    18    13
 C     2.28170  -0.94360   2.02220     8     5    15    12
 C    -1.91420  -1.50780   1.81560     9    22    16    10
 C    -0.54750  -1.39180   2.05080    10     9    14    11
 C    -0.00820  -0.08810   2.44730    11    12    24    10
 C     1.40170   0.11580   2.36580    12    13     8    11
 C     1.87940   1.37660   1.93310    13     7    20    12
 C     0.34270  -2.22490   1.28540    14    15    10     4
 C     1.69370  -2.03080   1.36830    15    14     2     8
 C    -2.47540  -2.25850   0.81770    16     3     9    52
 C     1.52490   2.60080   0.11880    17    18    30    20
 C     2.78110   2.07680   0.08160    18     7    17    25
 C    -0.40350   2.15870   1.55780    19    20    21    24
 C     0.95630   2.23770   1.36760    20    19    13    17
 C    -1.22500   2.68840   0.53070    21    49    29    19
 C    -2.81530  -0.49380   1.94110    22    23     9    50
 C    -2.33050   0.77170   2.07220    23    22    48    24
 C    -0.95220   1.01570   2.25980    24    23    19    11
 C     3.33880   1.36270  -0.95260    25    18    27    26
 C     4.13450   0.36940  -0.38890    26    33    25     6
 C     2.37210   1.04230  -1.89920    27    25    31    28
 C     1.12610   1.68120  -1.97120    28    27    39    30
 C    -0.67160   2.69610  -0.76620    29    30    37    21
 C     0.67940   2.58910  -0.98230    30    29    17    28
 C     2.13750  -0.30200  -2.20760    31    34    32    27
 C     2.85970  -1.28830  -1.55660    32    31    33    42
 C     3.93120  -0.94570  -0.73800    33     1    26    32
 C     0.79080  -0.43170  -2.50380    34    31    39    35
 C     0.02160  -1.55020  -2.12090    35    36    34    41
 C    -1.35800  -1.40030  -2.09480    36    43    35    40
 C    -1.63560   2.02520  -1.53650    37    47    38    29
 C    -1.22040   0.96720  -2.34420    38    37    39    40
 C     0.15740   0.81790  -2.50660    39    38    34    28
 C    -2.03400  -0.17360  -2.25060    40    38    36    45
 C     0.65770  -2.37690  -1.12770    41    42    35     4
 C     2.02300  -2.23060  -0.92340    42     2    41    32
 C    -2.15940  -2.09700  -1.25760    43    36    46     3
 C    -3.65300   0.84250  -0.75380    44    47    45    51
 C    -3.25310  -0.25090  -1.52560    45    46    44    40
 C    -3.34180  -1.50870  -0.95870    46    43    52    45
 C    -2.77250   1.89780  -0.78750    47    49    37    44
 C    -3.17930   1.51620   1.27330    48    49    23    51
 C    -2.52950   2.33570   0.46040    49    48    47    21
 C    -3.92780  -0.59480   1.11930    50    52    51    22
 C    -4.03400   0.65570   0.59300    51    50    48    44
 C    -3.65300  -1.69310   0.36470    52    50    46    16
