    52
C52-C1-214                                                                      
 C    -0.44940   2.02550  -2.09340     1     2     4    28
 C    -1.24130   2.77460  -1.26660     2     3     1    10
 C    -2.43790   2.27040  -0.84550     3     8     2    27
 C     0.93280   1.96310  -1.92400     4     1    34     5
 C     1.59280   2.53830  -0.79150     5     6     9     4
 C     2.73530   1.88110  -0.36110     6     5    32    19
 C    -1.41290   2.99610   0.91020     7    10     8    14
 C    -2.57420   2.43440   0.49560     8     7    13     3
 C     0.69930   3.05460   0.14060     9    10     5    21
 C    -0.61540   3.27130  -0.14650    10     7     9     2
 C    -3.39130  -0.92420   0.05310    11    12    22    18
 C    -3.42040   0.44660  -0.04250    12    11    13    27
 C    -3.06230   1.28520   1.02260    13     8    16    12
 C    -0.60860   2.42340   1.84350    14     7    15    21
 C    -1.07400   1.24790   2.41100    15    14    52    16
 C    -2.30430   0.67940   2.03380    16    17    13    15
 C    -2.16190  -0.69140   2.08510    17    16    18    44
 C    -2.80790  -1.53590   1.19660    18    24    17    11
 C     2.86230   1.46250   0.99620    19    48    20     6
 C     1.72270   1.59350   1.83160    20    21    19    51
 C     0.73270   2.51330   1.46090    21    14    20     9
 C    -2.99550  -1.69980  -1.01150    22    23    11    25
 C    -2.36790  -2.76660  -0.52710    23    24    29    22
 C    -2.17440  -2.68040   0.78070    24    23    18    47
 C    -2.21060  -1.14040  -2.00710    25    22    26    30
 C    -2.15790   0.24510  -2.14400    26    25    28    27
 C    -2.90050   1.03790  -1.23060    27     3    26    12
 C    -0.89380   0.76130  -2.52300    28    37     1    26
 C    -1.20020  -2.90700  -1.14390    29    23    30    41
 C    -1.03650  -1.94040  -2.09950    30    29    36    25
 C     3.96390   0.01750  -0.30990    31    32    48    40
 C     3.33890   0.87860  -1.11230    32    31    33     6
 C     2.53180   0.18030  -1.97720    33    34    32    38
 C     1.35960   0.72240  -2.39520    34    33    37     4
 C     1.39410  -1.94800  -1.67570    35    38    36    43
 C     0.22920  -1.42670  -2.36640    36    30    37    35
 C     0.24610  -0.04750  -2.66860    37    34    28    36
 C     2.59060  -1.17590  -1.62210    38    40    33    35
 C     3.06100  -1.75600   0.54040    39    40    42    49
 C     3.52680  -1.23900  -0.60330    40    39    31    38
 C    -0.20660  -3.09730  -0.21860    41    29    43    47
 C     1.89750  -2.43160   0.65960    42    39    43    45
 C     1.10860  -2.74110  -0.46860    43    41    42    35
 C    -0.83300  -0.97720   2.46550    44    17    52    46
 C     1.22520  -1.94660   1.80900    45    46    50    42
 C    -0.14080  -2.10100   1.95360    46    45    47    44
 C    -0.83920  -2.89050   1.04500    47    24    46    41
 C     3.63950   0.32300   0.96120    48    49    31    19
 C     3.09860  -0.78280   1.50130    49    48    50    39
 C     1.94360  -0.80200   2.20490    50    49    45    51
 C     1.23800   0.38290   2.49400    51    50    52    20
 C    -0.15350   0.24260   2.68310    52    15    51    44
