    52
C52-C1-145                                                                      
 C    -3.16730  -0.18500  -1.36550     1     2     9    37
 C    -2.89520  -1.48770  -1.11970     2     1     3    13
 C    -3.22590  -2.03640   0.11550     3     4     2    26
 C    -2.27080  -2.94100   0.29560     4     3     5    16
 C    -1.36760  -3.06230  -0.67550     5     4    18    13
 C     1.74190  -0.76220  -2.11690     6    19     7    14
 C     0.71830  -1.69510  -1.92220     7     6    12    17
 C    -2.41080   1.86910  -1.48750     8    50    38     9
 C    -2.19990   0.60840  -1.98930     9     8     1    11
 C     0.17610   1.11150  -2.25760    10    14    11    52
 C    -0.90980   0.15140  -2.34720    11     9    10    12
 C    -0.63630  -1.26220  -2.13910    12    13     7    11
 C    -1.66950  -2.03340  -1.55010    13     5     2    12
 C     1.48970   0.61220  -2.21800    14     6    10    48
 C    -0.20560  -2.74230   1.12470    15    16    23    18
 C    -1.52130  -2.52870   1.32500    16     4    15    25
 C     1.01870  -2.71820  -0.91510    17    18    21     7
 C    -0.08690  -3.16280  -0.23540    18     5    17    15
 C     2.98600  -0.91430  -1.55990    19    20    49     6
 C     3.28860  -1.83370  -0.61670    20    36    19    21
 C     2.19860  -2.54020  -0.18120    21    20    17    22
 C     2.02700  -2.08860   1.15770    22    34    23    21
 C     0.76680  -1.97330   1.71790    23    15    22    29
 C    -1.06630  -0.38970   2.32780    24    25    32    29
 C    -1.98210  -1.35930   1.84800    25    16    26    24
 C    -3.16360  -1.08720   1.13320    26    27     3    25
 C    -3.47580   0.20630   0.87840    27    26    37    33
 C     1.36020   0.31320   2.31070    28    30    35    29
 C     0.36260  -0.72470   2.35290    29    28    23    24
 C     0.88800   1.60830   2.10960    30    45    28    31
 C    -0.46340   1.92080   1.97850    31    30    32    41
 C    -1.48690   0.96980   2.12840    32    31    33    24
 C    -2.69330   1.24770   1.41720    33    39    27    32
 C     3.01360  -1.16690   1.34200    34    36    22    35
 C     2.66600   0.07110   1.79340    35    34    28    43
 C     3.91090  -1.10820   0.33520    36    20    34    46
 C    -3.81830   0.60680  -0.41370    37    38    27     1
 C    -3.38930   1.84840  -0.54880    38    37    39     8
 C    -2.77950   2.33430   0.53430    39    38    42    33
 C     0.67880   3.06620   0.53430    40    45    41    51
 C    -0.57100   2.95600   1.02140    41    40    42    31
 C    -1.63640   2.99010   0.19780    42    41    39    50
 C     3.41550   0.95630   0.95560    43    44    46    35
 C     2.68780   2.06550   0.58460    44    45    43    47
 C     1.59580   2.44040   1.27350    45    40    44    30
 C     4.08720   0.19240   0.00600    46    36    49    43
 C     2.28170   2.26180  -0.76090    47    48    51    44
 C     2.60010   1.23850  -1.61100    48    49    47    14
 C     3.51310   0.30390  -1.24180    49    48    19    46
 C    -1.35000   2.64180  -1.15060    50     8    52    42
 C     1.01550   2.82890  -0.78150    51    40    47    52
 C    -0.04730   2.38520  -1.59110    52    50    51    10
