    52
C52-C1-90                                                                       
 C    -3.05600  -1.11430  -1.42430     1    31     2     6
 C    -2.89040  -1.98630  -0.37890     2     3     7     1
 C    -1.70160  -2.61600  -0.30300     3     2     9     4
 C    -0.73010  -2.52200  -1.32200     4    12     3     5
 C    -0.76560  -1.48450  -2.27830     5     4     6    11
 C    -1.99300  -0.77510  -2.24220     6     1    33     5
 C    -3.42890  -1.37190   0.71700     7     2    13    16
 C     0.29440  -2.78720   0.56690     8     9    27    12
 C    -0.97930  -2.59120   0.90340     9     8     3    15
 C     0.39000   0.59330  -2.55810    10    48    34    11
 C     0.51060  -0.82980  -2.53090    11    10     5    51
 C     0.46220  -2.78900  -0.76420    12    52     8     4
 C    -4.09350  -0.22300   0.32720    13    14    31     7
 C    -3.69970   0.71110   1.22860    14    13    18    17
 C    -1.30730  -1.68470   1.93190    15    16     9    26
 C    -2.58940  -1.13300   1.81380    16    17    15     7
 C    -2.79070   0.17570   2.10210    17    16    14    23
 C    -3.09040   1.84390   0.79670    18    19    14    29
 C    -1.95730   2.06090   1.50650    19    40    18    23
 C     2.00260   0.95350   2.07690    20    41    21    25
 C     0.69290   1.41650   2.09060    21    20    22    39
 C    -0.38780   0.53810   2.50520    22    23    21    26
 C    -1.70210   0.97870   2.31910    23    17    19    22
 C     3.46570  -0.57320   1.43170    24    43    47    25
 C     2.27950  -0.42110   2.15060    25    28    24    20
 C    -0.14820  -0.90840   2.41450    26    28    22    15
 C     1.39090  -2.31290   1.15830    27     8    28    45
 C     1.20930  -1.30960   2.12960    28    25    27    26
 C    -2.77570   2.07170  -0.53180    29    18    30    32
 C    -3.08590   1.07060  -1.46060    30    31    29    33
 C    -3.77550  -0.03180  -0.99590    31     1    13    30
 C    -1.47940   2.60170  -0.50910    32    35    29    40
 C    -2.03550   0.61580  -2.27100    33    34     6    30
 C    -0.82080   1.24150  -2.32960    34    33    35    10
 C    -0.54660   2.29430  -1.46610    35    36    32    34
 C     0.79930   2.32910  -1.24420    36    35    48    38
 C     2.66310   2.13220   0.19420    37    41    38    42
 C     1.35630   2.56040   0.04470    38    37    36    39
 C     0.38120   2.44530   1.09180    39    40    38    21
 C    -0.96280   2.61960   0.79600    40    19    39    32
 C     3.04560   1.47730   1.34070    41    43    37    20
 C     3.41850   1.50410  -0.80130    42    44    49    37
 C     4.02630   0.60070   1.05500    43    44    41    24
 C     4.26790   0.58780  -0.26420    44    43    42    46
 C     2.38010  -2.21070   0.16000    45    47    52    27
 C     3.85590  -0.61030  -0.75900    46    44    47    50
 C     3.43520  -1.38200   0.30230    47    45    46    24
 C     1.42260   1.38600  -2.06880    48    49    10    36
 C     2.66700   0.93320  -1.79080    49    48    42    50
 C     2.89700  -0.44350  -1.77980    50    49    46    51
 C     1.79440  -1.30360  -2.01920    51    52    50    11
 C     1.68330  -2.32460  -1.05860    52    12    51    45
