    52
C52-C2-378                                                                      
 C     2.91160  -0.63130   1.52620     1     2    35     4
 C     2.06370  -1.65390   1.88120     2     3     1     5
 C     1.78780  -2.63080   0.96660     3     8     2    26
 C     2.59610   0.70340   1.80190     4     1     7    39
 C     0.84350  -1.37570   2.51480     5     6    13     2
 C     0.51290  -0.06820   2.80410     6     5    21     7
 C     1.38710   0.97180   2.45770     7    51     4     6
 C     0.49060  -2.96440   1.08380     8     3     9    13
 C    -0.02670  -3.19910  -0.15060     9     8    10    16
 C    -1.34450  -2.88630  -0.32390    10     9    17    12
 C    -1.51110  -1.84140   1.88170    11    13    12    22
 C    -2.15730  -2.35110   0.70620    12    20    10    11
 C    -0.16530  -2.22110   2.04210    13     8     5    11
 C     0.61160  -2.07310  -2.13020    14    27    15    16
 C    -0.72570  -1.72850  -2.32170    15    17    14    34
 C     0.99400  -2.88140  -1.05690    16    26    14     9
 C    -1.71460  -2.21840  -1.49680    17    18    15    10
 C    -2.78510  -1.46370  -1.20580    18    17    20    32
 C    -3.56090  -0.43380   0.52100    19    20    41    23
 C    -3.12810  -1.61330   0.10240    20    19    12    18
 C    -0.80900   0.36170   2.70240    21     6    46    22
 C    -1.89180  -0.49620   2.29340    22    23    21    11
 C    -2.95270   0.16060   1.61060    23    48    19    22
 C     2.96410  -1.51550  -0.72700    24    26    35    25
 C     2.59560  -0.69950  -1.81080    25    29    27    24
 C     2.16460  -2.57810  -0.35980    26    24     3    16
 C     1.39130  -0.97370  -2.47240    27    14    28    25
 C     0.51640   0.05960  -2.82380    28    31    34    27
 C     2.92500   0.62860  -1.53220    29    30    36    25
 C     2.06890   1.64560  -1.88730    30    37    29    31
 C     0.84980   1.36690  -2.52350    31    28    45    30
 C    -2.94530  -0.15090  -1.61590    32    41    18    33
 C    -1.88170   0.48360  -2.30690    33    32    34    44
 C    -0.80450  -0.37040  -2.71980    34    28    15    33
 C     3.39790  -0.61950   0.22960    35    36    24     1
 C     3.41340   0.64140  -0.23340    36    35    39    29
 C     1.78730   2.62010  -0.97030    37    40    30    38
 C     2.16420   2.57600   0.35660    38    39    37    50
 C     2.97900   1.53050   0.73350    39    38    36     4
 C     0.49280   2.96140  -1.07570    40    37    49    45
 C    -3.55580   0.44440  -0.53300    41    42    19    32
 C    -3.10430   1.60080  -0.07550    42    41    48    43
 C    -2.12790   2.33120  -0.69020    43    42    52    44
 C    -1.49860   1.82400  -1.88380    44    45    43    33
 C    -0.15610   2.21050  -2.04040    45    40    31    44
 C    -0.73480   1.72860   2.32070    46    47    51    21
 C    -1.73520   2.24200   1.51860    47    48    46    52
 C    -2.80280   1.48310   1.24430    48    47    42    23
 C    -0.03510   3.21480   0.14680    49    40    52    50
 C     0.98390   2.87990   1.05560    50    51    38    49
 C     0.60460   2.06770   2.12580    51     7    46    50
 C    -1.34480   2.90440   0.34350    52    49    47    43
