    52
C52-C2-82                                                                       
 C    -3.26700  -1.18230   1.06920     1     2     3    41
 C    -2.89500  -0.09040   1.80360     2    31     1     8
 C    -2.31850  -2.16660   0.95520     3     1     6     5
 C    -2.36810  -1.96610  -1.40950     4    40     5    50
 C    -1.96530  -2.69920  -0.31260     5    20     4     3
 C    -1.10670  -2.09800   1.66320     6    18     3     7
 C    -0.67140  -0.93580   2.34950     7     8     6    15
 C    -1.63520   0.07700   2.35660     8     2     9     7
 C    -1.29460   1.41390   2.15400     9     8    10    21
 C     0.06750   1.77660   2.04970    10     9    11    16
 C     0.34040   2.79660   1.10200    11    22    27    10
 C     2.38950   1.08160   1.70490    12    13    26    16
 C     3.33120   0.14780   1.37440    13    17    12    45
 C     1.68690  -1.53960   1.69110    14    17    19    15
 C     0.73790  -0.61170   2.31600    15     7    16    14
 C     1.10600   0.79770   2.23380    16    12    10    15
 C     2.95410  -1.15680   1.25440    17    13    14    49
 C    -0.19270  -2.76570   0.94620    18    19    20     6
 C     1.11810  -2.55430   0.91480    19    18    14    47
 C    -0.67800  -3.07520  -0.26190    20    18     5    52
 C    -2.38080   1.97850   1.41770    21    31    23     9
 C    -0.68090   3.04400   0.23740    22    25    23    11
 C    -1.97220   2.68580   0.30940    23    22    21    32
 C     1.11550   2.57410  -0.92820    24    25    36    27
 C    -0.19770   2.79040  -0.98260    25    24    22    34
 C     2.64950   2.12290   0.79270    26    27    28    12
 C     1.54160   2.77320   0.40460    27    26    11    24
 C     3.58700   1.61350  -0.07710    28    45    26    35
 C    -3.93100   0.67660   0.05850    29    31    41    30
 C    -3.26110   1.18830  -1.05330    30    33    32    29
 C    -3.36130   1.04850   1.24960    31     2    21    29
 C    -2.32600   2.18760  -0.96240    32    30    34    23
 C    -2.89590   0.09500  -1.78890    33    40    30    39
 C    -1.12400   2.12730  -1.69530    34    25    32    38
 C     2.93880   1.16210  -1.24930    35    42    36    28
 C     1.68240   1.55250  -1.69840    36    35    24    37
 C     0.73100   0.62300  -2.31280    37    38    44    36
 C    -0.68030   0.95210  -2.35390    38    39    34    37
 C    -1.63880  -0.06830  -2.35050    39    33    50    38
 C    -3.36560  -1.04690  -1.23640    40    33    41     4
 C    -3.94320  -0.70300  -0.04990    41    40    29     1
 C     3.31460  -0.14670  -1.34940    42    35    43    46
 C     2.37930  -1.08600  -1.68270    43    42    48    44
 C     1.09810  -0.79200  -2.21960    44    43    51    37
 C     4.22460   0.52520   0.40760    45    46    28    13
 C     4.21650  -0.54170  -0.39270    46    45    49    42
 C     1.55220  -2.79400  -0.41080    47    48    52    19
 C     2.66670  -2.14520  -0.79380    48    47    49    43
 C     3.59330  -1.64310   0.08770    49    46    48    17
 C    -1.29190  -1.40470  -2.15720    50    39    51     4
 C     0.06610  -1.77820  -2.04890    51    50    52    44
 C     0.35270  -2.81700  -1.12250    52    20    47    51
