    52
C52-C2-107                                                                      
 C    -1.09400   3.06020   0.81960     1     2    23    45
 C    -1.49650   3.17150  -0.43770     2     1    19     8
 C    -1.64360  -0.18830  -2.47480     3     4     6    14
 C    -1.25180  -1.46550  -2.30060     4     5     3    52
 C    -1.95390  -2.23130  -1.44980     5     4    11     9
 C    -0.65010   0.78680  -2.60910     6     7     3    50
 C    -1.20680   1.91170  -2.12520     7     6     8    20
 C    -0.52850   2.81080  -1.35960     8     7     2    47
 C    -2.91680  -1.75400  -0.58010     9    10     5    13
 C    -2.61550  -2.42020   0.58990    10    15     9    12
 C    -1.08650  -3.05510  -0.82430    11    12     5    33
 C    -1.46070  -3.16770   0.44160    12    11    37    10
 C    -3.25450  -0.37320  -0.62640    13     9    14    17
 C    -2.72790   0.36120  -1.74700    14    20     3    13
 C    -2.46590  -1.67570   1.68020    15    10    16    38
 C    -2.73580  -0.34650   1.74960    16    15    21    17
 C    -3.26580   0.39160   0.63470    17    18    16    13
 C    -2.94070   1.77310   0.57550    18    19    23    17
 C    -2.65820   2.44950  -0.59850    19    20     2    18
 C    -2.48020   1.69420  -1.67290    20    19    14     7
 C    -1.63820   0.17800   2.48410    21    22    28    16
 C    -1.25830   1.45380   2.28410    22    23    21    24
 C    -1.95560   2.22780   1.44360    23    22     1    18
 C     0.09200   1.78010   2.18160    24    22    26    45
 C     2.32150   1.12650   1.76190    25    29    26    40
 C     1.11070   0.83450   2.36930    26    25    24    27
 C     0.71900  -0.54950   2.53290    27    28    26    32
 C    -0.65790  -0.80320   2.63530    28    38    21    27
 C     3.24600   0.17190   1.46880    29    41    25    31
 C     3.30680  -1.53220   0.14590    30    42    34    31
 C     2.78700  -1.12590   1.37210    31    29    30    32
 C     1.54200  -1.55140   1.84480    32    31    36    27
 C     0.18690  -2.77390  -1.21510    33    11    35    52
 C     2.38260  -2.05580  -0.70980    34    30    35    44
 C     1.24540  -2.71830  -0.28530    35    34    33    36
 C     0.83420  -2.60110   1.11690    36    37    32    35
 C    -0.52920  -2.81930   1.38870    37    38    12    36
 C    -1.20960  -1.93130   2.15920    38    28    37    15
 C     3.32020   1.53080  -0.12870    39    41    40    48
 C     2.38780   2.08130   0.70630    40    39    46    25
 C     4.02420   0.51040   0.41110    41    42    39    29
 C     4.01540  -0.51360  -0.41660    42    41    43    30
 C     3.25730  -0.18580  -1.48140    43    42    44    48
 C     2.33710  -1.13750  -1.79910    44    43    51    34
 C     0.18800   2.80000   1.20230    45     1    46    24
 C     1.25130   2.73960   0.28940    46    40    45    47
 C     0.83730   2.58620  -1.10340    47     8    49    46
 C     2.78760   1.11920  -1.35280    48    43    39    49
 C     1.54050   1.53620  -1.83200    49    48    47    50
 C     0.73100   0.53170  -2.52720    50     6    51    49
 C     1.12660  -0.85390  -2.40470    51    44    52    50
 C     0.10220  -1.78490  -2.22400    52     4    51    33
