    52
C52-C2-427                                                                      
 C     3.01360   1.37020   0.84040     1     2    26     4
 C     3.39830   0.18020   0.33200     2     1     3    15
 C     3.21830  -0.02830  -1.02850     3    10     2     7
 C     2.38860   2.38050   0.11780     4    36     1     6
 C     0.70260   2.54040  -1.57610     5     6    19     9
 C     1.98920   2.10310  -1.20490     6     7     5     4
 C     2.40460   0.87600  -1.75780     7     6     3    11
 C    -1.41480   2.84460  -0.98650     8    50     9    40
 C    -0.16130   3.20120  -0.64400     9     8    35     5
 C     2.85660  -1.26860  -1.42430    10    12    13     3
 C     1.51570   0.08180  -2.54490    11    12    20     7
 C     1.84080  -1.21160  -2.30340    12    10    11    23
 C     2.57990  -2.26030  -0.55920    13    10    16    14
 C     2.48990  -2.01590   0.78060    14    13    15    28
 C     2.90800  -0.80080   1.25810    15    14    27     2
 C     1.44390  -2.86040  -0.97250    16    18    13    23
 C    -0.67030  -3.19050  -0.07520    17    34    18    24
 C     0.67510  -3.18040   0.08610    18    16    17    28
 C    -0.13380   1.77080  -2.42860    19    50    20     5
 C     0.18680   0.44100  -2.80210    20    11    19    21
 C    -0.85750  -0.60670  -2.65400    21    52    22    20
 C    -0.45280  -1.92180  -2.18730    22    23    24    21
 C     0.91380  -2.18900  -2.07550    23    12    16    22
 C    -1.27980  -2.56230  -1.21030    24    48    22    17
 C     1.40950   2.08680   2.07510    25    26    36    33
 C     2.35950   1.17240   2.00530    26    25     1    27
 C     2.14930  -0.14430   2.23900    27    26    15    31
 C     1.27820  -2.56240   1.22220    28    14    18    30
 C    -0.91100  -2.17600   2.03960    29    41    34    30
 C     0.45430  -1.90720   2.18950    30    29    28    31
 C     0.86110  -0.59620   2.66190    31    27    30    32
 C    -0.17750   0.45050   2.79650    32    42    33    31
 C     0.13880   1.77770   2.42420    33    25    32    39
 C    -1.46880  -2.87280   0.97070    34    49    17    29
 C     0.17330   3.21730   0.68350    35    36     9    39
 C     1.43970   2.88720   0.99520    36    25    35     4
 C    -2.40430   0.87250   1.74690    37    38    43    42
 C    -1.97910   2.11050   1.21350    38    39    40    37
 C    -0.70400   2.56180   1.59830    39    38    33    35
 C    -2.37750   2.35810  -0.11370    40    45     8    38
 C    -1.84090  -1.19630   2.26100    41    46    42    29
 C    -1.50020   0.08500   2.52390    42    41    32    37
 C    -3.23090  -0.03860   1.02680    43    46    44    37
 C    -3.39110   0.17260  -0.33690    44    45    43    47
 C    -3.01510   1.36820  -0.83860    45    44    51    40
 C    -2.89120  -1.29100   1.41760    46    49    41    43
 C    -2.89980  -0.81190  -1.25210    47    48    52    44
 C    -2.49660  -2.03520  -0.76520    48    49    47    24
 C    -2.61890  -2.29920   0.56770    49    46    34    48
 C    -1.40590   2.07960  -2.09130    50    51     8    19
 C    -2.36530   1.17920  -2.01120    51    50    52    45
 C    -2.14310  -0.13840  -2.22600    52    51    47    21
