    52
C52-C1-414                                                                      
 C    -1.28980   1.58970   2.28370     1    36     2     6
 C    -0.44660   2.46330   1.69410     2     3     1     9
 C     0.87730   2.25180   1.81000     3     2    10     4
 C     1.33280   1.05390   2.43200     4    20     5     3
 C     0.45140   0.00630   2.78600     5     6     4    19
 C    -0.91670   0.35330   2.76120     6     1    38     5
 C    -0.85380   2.34110  -1.77050     7    22    14     8
 C    -0.22120   2.94190  -0.65020     8     7     9    11
 C    -1.06290   2.87710   0.50920     9     2    21     8
 C     1.75260   2.57150   0.78070    10    15     3    11
 C     1.20400   2.79600  -0.52390    11    12    10     8
 C     1.90010   2.03620  -1.51470    12    17    13    11
 C     1.17250   1.24910  -2.41240    13    14    12    29
 C    -0.15670   1.39750  -2.55330    14    13    27     7
 C     2.84400   1.75730   0.97920    15    16    20    10
 C     3.55000   1.16670   0.01660    16    15    17    47
 C     3.02210   1.29270  -1.21410    17    16    45    12
 C    -0.26200  -2.19480   2.06890    18    48    39    19
 C     0.84610  -1.33940   2.40770    19    18     5    51
 C     2.54080   0.80460   1.89590    20     4    15    52
 C    -2.37750   2.33540   0.52170    21    23    36     9
 C    -2.14350   1.87450  -1.71350    22    28    23     7
 C    -2.96060   1.85070  -0.61880    23    22    21    24
 C    -3.50940   0.57190  -0.59050    24    25    34    23
 C    -3.01050  -0.12130  -1.64970    25    28    26    24
 C    -2.63390  -1.37760  -1.32140    26    25    37    32
 C    -0.97970   0.28820  -2.78430    27    28    14    31
 C    -2.19200   0.67200  -2.33930    28    25    27    22
 C     1.74550  -0.02690  -2.47050    29    45    13    30
 C     0.92880  -1.18360  -2.46580    30    29    42    31
 C    -0.51070  -1.04600  -2.60670    31    27    30    32
 C    -1.41580  -1.92820  -1.84920    32    33    26    31
 C    -0.81320  -2.86560  -1.01540    33    43    41    32
 C    -3.47450  -0.27390   0.49680    34    24    35    37
 C    -2.92250   0.22720   1.66850    35    36    34    38
 C    -2.45150   1.51800   1.62880    36     1    35    21
 C    -3.00940  -1.52670   0.04800    37    40    34    26
 C    -1.95360  -0.49750   2.37980    38    39     6    35
 C    -1.60820  -1.76180   1.99780    39    38    40    18
 C    -2.19340  -2.31160   0.83680    40    41    37    39
 C    -1.22180  -3.06300   0.29330    41    40    48    33
 C     1.43350  -2.17730  -1.58880    42    43    30    46
 C     0.54710  -2.94680  -0.92930    43    42    49    33
 C     3.30170  -0.87430  -0.80700    44    46    45    47
 C     2.89650   0.05350  -1.73490    45    17    29    44
 C     2.52500  -1.98290  -0.69590    46    44    50    42
 C     3.66020  -0.16810   0.31710    47    16    44    52
 C    -0.12370  -3.12210   1.07750    48    49    41    18
 C     0.97130  -3.14290   0.34390    49    48    50    43
 C     2.08870  -2.43620   0.57840    50    49    46    51
 C     2.13220  -1.53350   1.69640    51    52    50    19
 C     2.98870  -0.43620   1.51380    52    20    47    51
