    52
C52-C1-264                                                                      
 C     3.24760   1.45820  -0.75940     1    32     2     6
 C     2.96880   1.71210   0.55570     2     3     1    17
 C     1.88330   2.45890   0.86350     3     2     7     4
 C     0.94490   2.85960  -0.12150     4     9     3     5
 C     1.05540   2.34550  -1.45100     5     6     4    13
 C     2.23180   1.60730  -1.70630     6     1     5    35
 C     1.12390   2.14040   1.94040     7    10     3    15
 C    -1.47590   2.72050  -0.11350     8     9    11    23
 C    -0.29650   2.96380   0.50260     9     8    10     4
 C    -0.14510   2.48090   1.76170    10     7     9    25
 C    -1.42530   2.26780  -1.43740    11    14     8    13
 C    -0.20450   0.68470  -2.71320    12    34    50    13
 C    -0.18940   1.96080  -2.05710    13    11    12     5
 C    -2.55420   1.51300  -1.56520    14    47    11    52
 C     1.19420   0.94220   2.59100    15     7    16    19
 C     2.21080   0.05120   2.21630    16    15    18    17
 C     3.16630   0.47590   1.24890    17    29    16     2
 C     1.78250  -1.28720   2.11860    18    16    27    22
 C    -0.16320   0.58230   2.82560    19    21    25    15
 C    -1.87650  -0.99660   2.21900    20    45    26    21
 C    -0.57070  -0.74890   2.73550    21    19    22    20
 C     0.44360  -1.66280   2.40020    22    31    21    18
 C    -2.55610   2.07000   0.53260    23    47     8    24
 C    -2.26710   1.37190   1.76290    24    25    26    23
 C    -1.01610   1.60100   2.32760    25    10    24    19
 C    -2.75880   0.03920   1.80550    26    49    24    20
 C     2.24060  -2.09180   1.04870    27    30    28    18
 C     3.07990  -1.61450   0.09180    28    27    29    38
 C     3.67030  -0.38740   0.28200    29    32    28    17
 C     1.14900  -2.80180   0.69330    30    31    27    36
 C     0.13010  -2.67500   1.53020    31    30    46    22
 C     3.74990   0.22930  -0.89380    32    33    29     1
 C     3.08950  -0.47600  -1.80540    33    32    35    38
 C     0.93530  -0.09440  -2.74300    34    35    12    39
 C     2.16510   0.36800  -2.38160    35    34    33     6
 C     0.65540  -2.86360  -0.59140    36    30    37    40
 C     1.37590  -2.19310  -1.58980    37    36    38    39
 C     2.65330  -1.67560  -1.27010    38    33    37    28
 C     0.53090  -1.40560  -2.40720    39    43    34    37
 C    -0.74700  -2.86860  -0.45660    40    36    42    46
 C    -2.81210  -1.70580  -0.89800    41    51    44    42
 C    -1.58190  -2.20870  -1.38380    42    40    41    43
 C    -0.86600  -1.41640  -2.32550    43    39    50    42
 C    -3.05600  -1.68010   0.47410    44    45    49    41
 C    -2.12570  -2.09720   1.35570    45    44    46    20
 C    -1.06240  -2.82260   0.92820    46    31    45    40
 C    -3.31420   1.46310  -0.43820    47    48    14    23
 C    -3.83910   0.22900  -0.31460    48    49    47    51
 C    -3.57190  -0.46490   0.79690    49    48    44    26
 C    -1.34050  -0.13550  -2.65040    50    52    12    43
 C    -3.31870  -0.50410  -1.36630    51    52    48    41
 C    -2.54500   0.28500  -2.16500    52    51    50    14
