    52
C52-Cs-95                                                                       
 C    -1.38960   2.33840  -1.21600     1     3     2    36
 C    -2.54630   2.23900  -0.51450     2    33     1     7
 C    -0.24040   2.66590  -0.58950     3     1     4     9
 C     0.98110   2.32810  -1.09580     4     3    15     6
 C     2.34190   0.70140  -2.09090     5    19     6    38
 C     1.11080   1.36250  -2.13700     6     5     4    35
 C    -2.53450   2.10660   0.86090     7     8     2    10
 C    -3.43820   1.08810   1.07220     8    13     7    20
 C    -0.16960   2.63450   0.81170     9    16    10     3
 C    -1.29690   2.18350   1.51390    10     7     9    11
 C    -0.95980   1.09680   2.35040    11    12    18    10
 C    -1.81640  -0.00720   2.39520    12    13    11    27
 C    -3.06550  -0.01920   1.80200    13     8    22    12
 C     3.11950   1.74430  -0.15030    14    15    19    49
 C     1.90680   2.34240  -0.05810    15    14     4    16
 C     1.14600   2.33700   1.11100    16     9    15    17
 C     1.50910   1.38390   2.08690    17    50    18    16
 C     0.36960   0.69760   2.53780    18    11    17    45
 C     3.43470   1.03160  -1.29150    19    51    14     5
 C    -4.05450   0.67400  -0.09740    20    21    33     8
 C    -4.05470  -0.67880  -0.06860    21    20    23    22
 C    -3.47830  -1.13260   1.10100    22    13    21    29
 C    -3.35490  -1.30300  -1.06540    23    24    21    31
 C    -2.54000  -2.21270  -0.49160    24    23    26    29
 C    -0.24170  -2.65700  -0.57680    25    26    40    30
 C    -1.38910  -2.31220  -1.19730    26    25    24    34
 C    -0.96160  -1.11830   2.36130    27    12    45    28
 C    -1.31650  -2.21640   1.53500    28    29    30    27
 C    -2.55850  -2.14500   0.89280    29    22    24    28
 C    -0.17500  -2.64260   0.82760    30    48    25    28
 C    -2.60190  -0.66660  -2.04690    31    32    23    34
 C    -2.61280   0.70740  -2.05320    32    31    33    36
 C    -3.37890   1.34080  -1.08790    33     2    20    32
 C    -1.36450  -1.31430  -2.18080    34    26    31    39
 C    -0.11610   0.72520  -2.51760    35    36     6    39
 C    -1.36450   1.33360  -2.19230    36     1    32    35
 C     3.42760  -1.04170  -1.30670    37    51    44    38
 C     2.33990  -0.70260  -2.10810    38    37    41     5
 C    -0.11170  -0.72710  -2.51680    39    34    41    35
 C     0.97890  -2.32710  -1.09230    40    25    42    41
 C     1.11310  -1.36750  -2.13640    41    38    40    39
 C     1.90470  -2.34250  -0.05550    42    44    40    48
 C     3.64090  -1.04120   0.91510    43    52    44    46
 C     3.11530  -1.74080  -0.15400    44    42    43    37
 C     0.36830  -0.70830   2.54620    45    47    27    18
 C     2.70790  -0.68990   1.88320    46    43    47    50
 C     1.50220  -1.38180   2.07720    47    45    46    48
 C     1.14600  -2.34240   1.11410    48    30    42    47
 C     3.65960   1.05930   0.92500    49    52    14    50
 C     2.72700   0.72090   1.89320    50    49    17    46
 C     4.22290  -0.00430  -0.92850    51    52    19    37
 C     4.35680   0.00350   0.40720    52    51    43    49
