    52
C52-C1-230                                                                      
 C     1.27470  -2.83590   1.13040     1    34     2    12
 C     2.34630  -2.02620   0.94480     2     1     5    32
 C     3.58320  -0.01800  -0.36440     3    30    14     6
 C     1.25730  -0.33720   2.31870     4     7    10     5
 C     2.46460  -0.79980   1.60930     5     2     6     4
 C     3.29920   0.15860   0.98600     6     9     3     5
 C     1.08640   1.06480   2.33830     7     8    52     4
 C     2.00810   1.89030   1.77030     8     9    47     7
 C     3.08480   1.49450   1.10140     9     8     6    17
 C     0.03610  -1.11820   2.32190    10    12     4    11
 C    -1.27120  -0.47870   2.30270    11    13    51    10
 C     0.12650  -2.39650   1.72320    12     1    41    10
 C    -2.33030  -1.19840   1.65760    13    48    40    11
 C     3.32690   1.17830  -0.97110    14    17     3    15
 C     2.36380   0.85840  -1.89780    15    16    14    22
 C     1.25650   1.66380  -2.00240    16    15    24    19
 C     3.11720   2.18400  -0.08640    17    14     9    18
 C     1.98970   2.98140  -0.12620    18    47    17    19
 C     1.06410   2.76540  -1.14480    19    29    18    16
 C     0.73670  -2.39050  -1.72340    20    21    31    38
 C     0.93520  -1.11120  -2.27120    21    20    22    25
 C     2.19860  -0.51560  -1.98230    22    15    30    21
 C    -0.94310   1.96570  -1.80990    23    26    24    29
 C     0.02170   1.11930  -2.32630    24    23    16    25
 C    -0.22450  -0.28090  -2.47030    25    24    21    28
 C    -2.22010   1.57020  -1.62350    26    23    45    27
 C    -2.57240   0.23190  -1.83470    27    39    26    28
 C    -1.56130  -0.73450  -2.13240    28    27    37    25
 C    -0.30720   2.86680  -0.95400    29    19    23    43
 C     3.09620  -1.08820  -1.05100    30    32     3    22
 C     1.69780  -3.00910  -0.90330    31    34    32    20
 C     2.69800  -2.21550  -0.42450    32    30    31     2
 C    -0.30370  -3.55510  -0.13030    33    34    41    38
 C     0.99370  -3.59960   0.05010    34    33    31     1
 C    -3.48120  -1.02220  -0.19440    35    39    36    48
 C    -2.60600  -2.03000  -0.37330    36    35    40    37
 C    -1.67240  -2.00790  -1.45510    37    38    36    28
 C    -0.54050  -2.79370  -1.28660    38    37    33    20
 C    -3.65860   0.03940  -1.00110    39    35    42    27
 C    -2.05390  -2.32240   0.88670    40    41    13    36
 C    -0.90330  -2.97540   0.96990    41    40    33    12
 C    -3.84710   1.13940  -0.22660    42    45    49    39
 C    -0.90950   3.00940   0.33520    43    44    46    29
 C    -2.19170   2.50660   0.47520    44    43    45    50
 C    -2.97640   2.08900  -0.58720    45    42    26    44
 C     0.02720   2.77620   1.33340    46    47    43    52
 C     1.36190   2.85980   1.09320    47     8    46    18
 C    -3.35470  -0.52680   1.07000    48    49    13    35
 C    -3.51790   0.80130   1.04000    49    48    42    50
 C    -2.46440   1.54610   1.50070    50    49    51    44
 C    -1.36940   0.96800   2.20800    51    52    50    11
 C    -0.17350   1.66240   2.19120    52    51     7    46
