    52
C52-C1-12                                                                       
 C    -3.06840   1.80720  -0.90970     1     2    20    45
 C    -4.19440   1.05860  -0.96670     2     1    42     5
 C     0.93380   2.37330  -0.02370     3     4    21    31
 C    -0.39470   2.29480  -0.30980     4     3    44    19
 C    -3.71860  -0.05730  -1.59580     5     6     2    10
 C    -3.95880  -1.07910  -0.73310     6     5    41     9
 C    -1.51650  -1.87980   1.44620     7     8    15    26
 C    -2.74940  -1.78640   0.91350     8     7    25     9
 C    -2.86800  -1.88450  -0.47250     9     6     8    12
 C    -2.45420   0.09280  -2.11490    10     5    11    20
 C    -1.42830  -0.85470  -2.10970    11    10    16    12
 C    -1.64840  -1.96750  -1.19250    12     9    14    11
 C     0.78530  -2.29740  -1.13710    13    14    18    37
 C    -0.46500  -2.46250  -0.58210    14    13    15    12
 C    -0.41830  -2.39630   0.82350    15     7    39    14
 C    -0.09440  -0.44540  -2.36610    16    18    11    23
 C     2.25920  -0.98500  -2.07130    17    47    18    24
 C     0.95460  -1.31550  -2.11400    18    17    16    13
 C    -0.72400   1.69720  -1.57660    19    20    23     4
 C    -2.04980   1.37500  -1.72540    20    19     1    10
 C     1.99240   2.09850  -0.88110    21    50     3    22
 C     1.71660   1.22630  -1.95310    22    21    24    23
 C     0.32550   0.94240  -2.18240    23    19    22    16
 C     2.76010   0.27900  -2.09790    24    17    52    22
 C    -3.65370  -0.84880   1.33790    25    41     8    28
 C    -0.99900  -0.84690   2.22040    26    32     7    27
 C    -1.72230   0.35190   2.22180    27    26    28    30
 C    -3.06890   0.31800   1.82990    28    43    25    27
 C     0.57580   1.33570   2.03180    29    31    30    33
 C    -0.83720   1.42000   1.85520    30    29    27    44
 C     1.42980   2.11360   1.24960    31    34     3    29
 C     0.37030  -0.95950   2.24350    32    26    33    39
 C     1.24620   0.10150   2.39130    33    32    35    29
 C     2.76250   1.91980   1.14240    34    36    31    50
 C     2.61860  -0.09130   2.09570    35    36    33    40
 C     3.47310   0.92140   1.70050    36    34    46    35
 C     2.02980  -2.35520  -0.47390    37    47    38    13
 C     2.04200  -2.09170   0.91020    38    39    37    40
 C     0.76890  -2.03520   1.44190    39    38    15    32
 C     3.06260  -1.22640   1.36680    40    49    38    35
 C    -4.57190  -0.54650   0.38080    41    42    25     6
 C    -4.67130   0.80270   0.27580    42     2    41    43
 C    -3.67720   1.31800   1.09090    43    28    45    42
 C    -1.37180   2.15950   0.72910    44    45     4    30
 C    -2.71290   2.03260   0.40050    45     1    43    44
 C     4.40080   0.50770   0.80190    46    36    49    51
 C     2.98860  -1.72210  -1.21640    47    48    17    37
 C     4.03050  -1.01030  -0.75800    48    47    49    52
 C     4.16050  -0.81980   0.58420    49    48    46    40
 C     3.16840   2.00360  -0.15940    50    51    34    21
 C     4.22150   1.16710  -0.39810    51    52    50    46
 C     3.95870   0.25030  -1.36060    52    51    48    24
