    52
C52-C1-226                                                                      
 C     2.56320   1.95370  -1.08260     1    29     4     2
 C     3.23250   1.72460   0.10050     2     3     1    15
 C     2.45500   1.95220   1.21540     3    10     2     7
 C     1.28310   2.40820  -1.20940     4     1     6    37
 C    -0.80550   2.78820  -0.15620     5     6     9    19
 C     0.56640   2.82330  -0.08420     6     5     4     7
 C     1.16110   2.51310   1.15100     7     6     3    11
 C    -2.71410   1.98720  -0.90260     8    38     9    50
 C    -1.46690   2.28530  -1.29990     9     8     5    36
 C     2.33050   0.92340   2.10130    10    12     3    13
 C     0.30820   1.90150   2.10000    11    12    20     7
 C     1.08060   0.89380   2.57120    12    10    23    11
 C     2.80580  -0.33910   1.90030    13    10    14    16
 C     3.60100  -0.56790   0.79180    14    28    13    15
 C     3.86040   0.49390  -0.08860    15    26     2    14
 C     1.69670  -1.16810   2.22340    16    17    13    23
 C     1.36610  -2.28540   1.43870    17    18    16    27
 C     0.01180  -2.60040   1.38360    18    35    17    24
 C    -1.65700   2.47760   0.93180    19    50    20     5
 C    -1.06950   1.76290   1.99660    20    11    19    21
 C    -1.68790   0.46770   2.31750    21    52    22    20
 C    -0.75440  -0.62720   2.56890    22    23    24    21
 C     0.61790  -0.37010   2.70850    23    12    22    16
 C    -1.05260  -1.86880   1.97250    24    48    22    18
 C     3.15780  -1.19630  -1.30920    25    26    28    32
 C     3.59950   0.06740  -1.37040    26    29    25    15
 C     2.12360  -2.41540   0.24680    27    28    31    17
 C     3.19390  -1.60840  -0.00450    28    27    25    14
 C     2.75640   0.93160  -1.94820    29    26     1    34
 C     0.11620  -2.79480  -0.95960    30    31    35    40
 C     1.43140  -2.52970  -0.97650    31    30    32    27
 C     1.97110  -1.62120  -1.87110    32    25    31    33
 C     1.06690  -0.71740  -2.53540    33    34    32    41
 C     1.53450   0.62090  -2.51110    34    29    37    33
 C    -0.54340  -3.03560   0.20200    35    49    30    18
 C    -0.74400   1.47320  -2.20480    36    37     9    39
 C     0.62690   1.62830  -2.19660    37    36    34     4
 C    -3.38690   0.90980  -1.31550    38     8    43    42
 C    -1.31760   0.15360  -2.44550    39    42    36    41
 C    -0.80460  -2.10010  -1.75890    40    44    30    41
 C    -0.35610  -0.94390  -2.47230    41    40    33    39
 C    -2.64280  -0.06450  -1.93620    42    38    46    39
 C    -4.06060   0.43940  -0.22750    43    45    51    38
 C    -2.04940  -2.17950  -1.12990    44    46    49    40
 C    -3.77390  -0.86080  -0.13120    45    43    47    46
 C    -3.00220  -1.22790  -1.24590    46    44    42    45
 C    -3.17390  -1.08760   1.11430    47    48    45    52
 C    -2.21840  -2.04570   1.22610    48    47    49    24
 C    -1.81730  -2.71640   0.11210    49    35    48    44
 C    -2.86230   2.11840   0.44020    50    51    19     8
 C    -3.61130   1.08930   0.87600    51    50    43    52
 C    -2.94760   0.18730   1.68660    52    51    47    21
