    52
C52-C1-133                                                                      
 C     2.19540  -2.00980   1.27180     1     3     2    34
 C     3.38670  -1.50440   0.82760     2     1    32     9
 C     1.35300  -2.60760   0.37750     3     4     1     7
 C     0.01640  -2.68810   0.61120     4     3    14     6
 C    -2.02360  -1.86580   1.51820     5     6    20    41
 C    -0.65420  -2.03590   1.68320     6     5     4    35
 C     1.57920  -2.36900  -0.98840     7     8    15     3
 C     2.68450  -1.66510  -1.36960     8     7     9    11
 C     3.73240  -1.40670  -0.49800     9    21     2     8
 C     0.74060   1.18560  -2.28370    10    50    12    23
 C     2.40880  -0.50090  -2.09310    11    22     8    12
 C     1.07930  -0.17230  -2.47810    12    10    11    18
 C    -1.92430  -2.39980  -0.70500    13    14    20    16
 C    -0.61940  -2.64620  -0.62760    14    13    15     4
 C     0.31820  -2.19140  -1.52280    15    14     7    18
 C    -2.39340  -1.46150  -1.63210    16    46    13    17
 C    -1.42000  -0.64320  -2.28650    17    16    18    49
 C    -0.03430  -1.06870  -2.33640    18    15    12    17
 C    -3.76660  -1.57650   0.14040    19    20    52    46
 C    -2.71910  -2.32800   0.40590    20    19    13     5
 C     4.16350  -0.14530  -0.67900    21     9    22    26
 C     3.34110   0.40860  -1.60220    22    21    24    11
 C     1.61400   2.00760  -1.53620    23    24    28    10
 C     2.85670   1.59090  -1.14150    24    22    23    25
 C     3.26900   1.69710   0.20420    25    26    27    24
 C     4.05550   0.58250   0.46770    26    21    32    25
 C     2.23360   2.06830   1.06300    27    29    25    30
 C     0.78390   2.73700  -0.71840    28    43    23    29
 C     1.07800   2.68920   0.64530    29    27    38    28
 C     1.80600   1.17980   2.07260    30    31    33    27
 C     2.43940  -0.02980   2.16290    31    30    32    34
 C     3.55850  -0.28010   1.41420    32     2    31    26
 C     0.43200   1.31520   2.25070    33    38    30    36
 C     1.56650  -1.12390   2.16240    34    31     1    35
 C     0.15460  -1.05260   2.33370    35    34     6    36
 C    -0.48160   0.23980   2.50500    36    33    40    35
 C    -1.28180   2.45930   1.06810    37    38    39    45
 C     0.00980   2.37490   1.46210    38    37    29    33
 C    -2.27500   1.62260   1.55470    39    37    42    40
 C    -1.88290   0.41280   2.21390    40    41    39    36
 C    -2.71300  -0.68640   1.86280    41     5    52    40
 C    -3.29830   1.62940   0.61420    42    51    44    39
 C    -0.51880   2.61640  -1.13020    43    45    28    50
 C    -2.74530   2.12210  -0.52400    44    45    42    48
 C    -1.57870   2.71620  -0.27060    45    44    43    37
 C    -3.58860  -1.01910  -1.08660    46    47    19    16
 C    -3.80570   0.29500  -0.97130    47    46    48    51
 C    -2.90070   1.17750  -1.51940    48    47    44    49
 C    -1.71870   0.77550  -2.21510    49    50    48    17
 C    -0.57610   1.59680  -2.10250    50    10    43    49
 C    -4.06610   0.56350   0.37020    51    42    52    47
 C    -3.87220  -0.58280   1.05820    52    51    19    41
