    52
C52-C1-268                                                                      
 C     1.66930  -1.49640  -2.16500     1     2    26     3
 C     0.49690  -2.12570  -2.16050     2     1    39    13
 C     1.50670  -0.20170  -2.57200     3     1     4     7
 C     2.29480   0.78690  -1.96970     4     3     6     5
 C     3.25570   0.37110  -1.00450     5    18     4    25
 C     1.58900   1.97860  -1.71750     6     4    10    16
 C     0.11980  -0.06580  -2.85290     7     9    13     3
 C    -1.90550   1.04640  -2.17180     8    47     9    12
 C    -0.55300   1.13350  -2.61170     9     7    10     8
 C     0.23380   2.16750  -2.06770    10    20     9     6
 C    -3.38580  -0.02410  -0.86900    11    46    52    12
 C    -2.51250  -0.21930  -1.92550    12    11    15     8
 C    -0.51260  -1.30790  -2.58810    13     2    15     7
 C    -1.95950  -2.37270  -0.98020    14    50    38    15
 C    -1.79870  -1.42080  -2.04580    15    13    12    14
 C     1.78820   2.63420  -0.47860    16    19    17     6
 C     2.60100   2.11980   0.47380    17    16    18    22
 C     3.46930   1.11110   0.15350    18    21    17     5
 C     0.57460   3.08830  -0.12410    19    20    16    31
 C    -0.33190   2.96020  -1.10050    20    19    48    10
 C     3.56150   0.29460   1.19250    21    18    24    23
 C     2.01310   1.77120   1.73250    22    23    32    17
 C     2.64080   0.60850   2.09780    23    21    35    22
 C     3.40780  -0.95770   0.78880    24    21    25    27
 C     3.30450  -0.99730  -0.58290    25    26    24     5
 C     2.45100  -1.90330  -1.13160    26     1    25    30
 C     2.39700  -1.52590   1.56610    27    29    24    35
 C     0.24550  -2.51290   1.57090    28    37    29    36
 C     1.52990  -2.47810   1.02870    29    28    27    30
 C     1.60350  -2.74060  -0.37640    30    26    39    29
 C    -0.03880   2.82740   1.07990    31    19    43    32
 C     0.64320   1.99700   2.00340    32    22    31    33
 C    -0.13050   0.91600   2.59640    33    45    32    34
 C     0.52950  -0.38180   2.72760    34    35    36    33
 C     1.88970  -0.48850   2.41740    35    23    34    27
 C    -0.27230  -1.50250   2.42320    36    41    34    28
 C    -0.83350  -2.92350   0.81980    37    42    38    28
 C    -0.80700  -3.07620  -0.52940    38    39    37    14
 C     0.41580  -2.97340  -1.10550    39    38     2    30
 C    -2.31350  -0.24290   2.21800    40    41    51    45
 C    -1.64160  -1.42970   2.19540    41    40    42    36
 C    -1.95390  -2.31960   1.19730    42    37    41    50
 C    -1.39420   2.73440   0.78240    43    44    31    48
 C    -2.17190   1.86390   1.50660    44    43    49    45
 C    -1.54170   0.93040   2.34590    45    44    40    33
 C    -3.31300   1.26810  -0.46110    46    47    11    49
 C    -2.44760   1.96610  -1.23590    47    46    48     8
 C    -1.58150   2.83290  -0.62300    48    20    47    43
 C    -3.23230   1.23760   0.89640    49    51    46    44
 C    -2.77070  -2.03520   0.13060    50    52    42    14
 C    -3.33450  -0.04000   1.30360    51    49    40    52
 C    -3.49560  -0.87930   0.20620    52    50    11    51
