    52
C52-C1-91                                                                       
 C     4.09470  -0.13790   0.11520     1     3    16    31
 C     2.98500   1.34030   1.48770     2     3    11    29
 C     3.83110   1.14860   0.46780     3     2     1     5
 C     2.12940   2.42840  -0.23930     4    11     5     6
 C     3.30060   1.82150  -0.61930     5    17     4     3
 C     0.91770   2.37460  -0.95960     6     4     7    18
 C    -0.31590   2.59290  -0.25940     7     9     6    14
 C    -2.73600   2.25920  -0.31670     8    48     9    15
 C    -1.50190   2.36910  -0.91810     9     7     8    24
 C     0.85900   2.03410   1.72120    10    11    14    36
 C     2.02520   2.21760   1.10410    11    10     2     4
 C    -1.33720   0.54660   2.40910    12    35    50    13
 C    -1.57710   1.75690   1.68800    13    15    12    14
 C    -0.37910   2.35950   1.18510    14    10    13     7
 C    -2.77770   1.80050   0.98240    15     8    13    52
 C     3.87880  -0.15080  -1.23320    16    20    17     1
 C     3.29140   0.98210  -1.66110    17     5    16    19
 C     0.88450   1.40180  -2.06380    18    19    25     6
 C     2.07720   0.67040  -2.24660    19    17    23    18
 C     3.08340  -1.16420  -1.54730    20    16    21    23
 C     2.83250  -1.88520  -0.40230    21    22    20    31
 C     1.66710  -2.55190  -0.32340    22    21    32    28
 C     1.97490  -0.73220  -2.27250    23    27    20    19
 C    -1.54550   1.47480  -2.00080    24    40    25     9
 C    -0.38080   0.80650  -2.36240    25    24    18    26
 C    -0.49370  -0.65460  -2.42800    26    27    25    42
 C     0.74370  -1.36330  -2.22980    27    23    28    26
 C     0.68970  -2.45030  -1.33830    28    39    27    22
 C     2.32290   0.36420   2.19220    29     2    36    30
 C     2.44860  -1.00340   1.81050    30    29    33    31
 C     3.35040  -1.17430   0.69720    31     1    21    30
 C     0.96030  -2.66840   0.86580    32    37    22    33
 C     1.25100  -1.78940   1.92740    33    32    34    30
 C     0.03130  -1.25540   2.46600    34    35    45    33
 C    -0.04500   0.11480   2.68730    35    36    34    12
 C     1.05010   0.87230   2.47960    36    35    29    10
 C    -0.33260  -2.92080   0.51600    37    39    44    32
 C    -1.69700  -2.26870  -1.06740    38    39    42    43
 C    -0.48550  -2.77510  -0.80490    39    28    37    38
 C    -2.81230   0.96730  -1.93120    40    48    24    41
 C    -2.91170  -0.39010  -1.77790    41    40    42    47
 C    -1.78450  -1.18960  -1.97430    42    41    38    26
 C    -2.42970  -2.24910   0.14000    43    46    44    38
 C    -1.46890  -2.52600   1.12060    44    37    45    43
 C    -1.28610  -1.62710   2.14040    45    44    50    34
 C    -3.40730  -1.30970   0.30150    46    43    47    51
 C    -3.85630  -0.53020  -0.73720    47    49    46    41
 C    -3.63680   1.57760  -1.05750    48    49    40     8
 C    -4.27070   0.69320  -0.29340    49    48    52    47
 C    -2.16600  -0.55700   2.19350    50    51    45    12
 C    -3.30020  -0.43200   1.40620    51    52    50    46
 C    -3.74680   0.78470   0.96420    52    49    51    15
