    52
C52-C1-351                                                                      
 C    -1.11670  -1.68330   2.16680     1     2     3    40
 C    -2.39060  -1.35410   1.85800     2    34     1    10
 C    -0.26780  -0.73200   2.64930     3     1     4    11
 C     1.09640  -0.83450   2.46470     4     3    49     6
 C     2.92810  -1.51180   1.05390     5    41    52     6
 C     1.68750  -1.86590   1.65890     6     5     4    39
 C    -3.68300  -0.03270   0.73060     7     8    10    33
 C    -3.54380   0.98670  -0.18380     8     9     7    24
 C    -2.72910   2.05340   0.09830     9    14     8    13
 C    -2.86120  -0.05320   1.84950    10     2     7    12
 C    -0.67180   0.61690   2.63530    11    18     3    12
 C    -1.96030   0.98360   2.15300    12    10    13    11
 C    -1.94220   2.10180   1.28670    13    20    12     9
 C    -1.88060   2.51460  -0.86720    14    15     9    22
 C    -0.76380   2.98280  -0.33000    15    14    17    20
 C     1.52260   2.60050  -0.60590    16    17    31    21
 C     0.29490   2.72990  -1.14510    17    16    15    30
 C     0.50860   1.34260   2.44530    18    11    49    19
 C     0.50420   2.48150   1.59880    19    20    21    18
 C    -0.72860   2.77250   1.02670    20    15    19    13
 C     1.67220   2.57620   0.80390    21    51    19    16
 C    -1.55990   1.81870  -2.01310    22    23    14    30
 C    -2.24980   0.66400  -2.20550    23    22    24    26
 C    -3.28870   0.31380  -1.38160    24    32    23     8
 C     0.56820  -1.60220  -2.27290    25    48    27    36
 C    -1.50380  -0.48990  -2.46040    26    23    27    35
 C    -0.10610  -0.44710  -2.68300    27    25    26    28
 C     0.64710   0.80600  -2.57210    28    30    29    27
 C     2.04500   0.78540  -2.14870    29    47    31    28
 C    -0.17090   1.89410  -2.16700    30    22    17    28
 C     2.46800   1.75390  -1.17640    31    46    16    29
 C    -3.30590  -1.01370  -1.17630    32    24    33    35
 C    -3.64370  -1.27080   0.10250    33    34    32     7
 C    -2.82140  -2.06750   0.79630    34    33     2    38
 C    -2.16060  -1.54140  -1.75690    35    32    37    26
 C    -0.02950  -2.53020  -1.37920    36    37    43    25
 C    -1.36810  -2.48480  -1.06190    37    36    35    38
 C    -1.70380  -2.70240   0.29920    38    34    40    37
 C     0.72010  -2.66900   0.92580    39    40    43     6
 C    -0.64300  -2.60780   1.23240    40     1    39    38
 C     3.15500  -1.80190  -0.27330    41    42    44     5
 C     2.15080  -2.34200  -0.95280    42    41    43    48
 C     0.99910  -2.82090  -0.45280    43    42    36    39
 C     3.62230  -0.71320  -0.96390    44    45    41    47
 C     3.88840   0.20350  -0.02310    45    44    46    52
 C     3.34240   1.42650  -0.15890    46    45    51    31
 C     2.70100  -0.46520  -1.99130    47    48    44    29
 C     1.88860  -1.55470  -2.01250    48    42    25    47
 C     1.61870   0.47120   2.49020    49    50     4    18
 C     2.80690   0.74440   1.86570    50    52    49    51
 C     2.77830   1.81770   1.01260    51    21    46    50
 C     3.47850  -0.24670   1.21450    52    50    45     5
