    52
C52-C1-251                                                                      
 C     3.42590  -0.88590   1.24260     1     2     5    35
 C     2.48350  -0.65680   2.14500     2     1    13    41
 C    -1.53870   0.34860   2.44300     3    42    50     4
 C    -0.17400   0.03360   2.66520     4     3    12    40
 C     3.02680  -1.87110   0.44160     5     1     6     8
 C     3.05330  -1.39220  -0.84400     6     5     7    17
 C     1.97730  -1.72070  -1.65590     7     6    11    18
 C     1.88220  -2.43680   0.97020     8     5    10    13
 C    -0.41180  -2.96940   0.68610     9    28    10    14
 C     0.87800  -2.94240   0.16160    10     8     9    11
 C     0.95650  -2.57110  -1.22120    11    23     7    10
 C     0.19470  -1.35210   2.40210    12    13    14     4
 C     1.52000  -1.62300   2.08600    13     2    12     8
 C    -0.78530  -2.17660   1.80690    14    51    12     9
 C     2.86710   0.85190  -1.55870    15    29    17    16
 C     1.80560   0.52160  -2.41440    16    18    20    15
 C     3.52770  -0.06970  -0.77360    17    15    35     6
 C     1.35900  -0.77610  -2.48150    18    16    24     7
 C    -1.37460   2.14150  -1.66560    19    45    31    21
 C     0.83290   1.53110  -2.37830    20    30    16    21
 C    -0.55770   1.28870  -2.47090    21    20    19    27
 C    -1.43430  -2.53990  -1.41210    22    23    25    28
 C    -0.20780  -2.26490  -1.92640    23    22    11    24
 C     0.00740  -1.06320  -2.61770    24    18    23    27
 C    -2.46770  -1.66450  -1.55510    25    48    22    26
 C    -2.27050  -0.41490  -2.09280    26    25    44    27
 C    -1.01690  -0.05550  -2.65510    27    26    21    24
 C    -1.52620  -2.95170  -0.10570    28    47     9    22
 C     2.47350   2.01840  -0.95710    29    30    15    33
 C     1.32490   2.44770  -1.48120    30    29    32    20
 C    -0.78590   3.00750  -0.69900    31    39    32    19
 C     0.55730   3.04370  -0.55400    32    30    31    36
 C     2.44980   2.22160   0.40930    33    34    29    36
 C     3.00440   1.25420   1.18930    34    33    35    41
 C     3.72660   0.22820   0.57870    35     1    34    17
 C     1.19690   2.77380   0.68120    36    33    32    37
 C     0.37460   2.29570   1.74470    37    38    36    40
 C    -0.99460   2.48520   1.56290    38    42    37    39
 C    -1.58060   2.95770   0.38680    39    31    46    38
 C     0.83050   1.08850   2.41380    40    41    37     4
 C     2.15470   0.67270   2.16780    41     2    40    34
 C    -1.90760   1.57080   1.97670    42    38     3    43
 C    -3.00440   1.50700   1.17520    43    46    49    42
 C    -3.04940   0.44270  -1.29470    44    45    26    52
 C    -2.60410   1.73830  -1.10930    45    46    44    19
 C    -2.73480   2.31250   0.12690    46    39    43    45
 C    -2.58890  -2.35430   0.46520    47    28    48    51
 C    -3.25100  -1.59440  -0.44590    48    52    47    25
 C    -3.38110   0.20630   1.08230    49    43    52    50
 C    -2.51590  -0.52960   1.94280    50    51     3    49
 C    -2.12080  -1.80260   1.62900    51    50    47    14
 C    -3.60810  -0.30700  -0.20930    52    48    49    44
