    52
C52-C1-71                                                                       
 C    -2.10020   2.53720   0.46350     1    33     2     4
 C    -2.35330   1.70780   1.53810     2     3     1    20
 C    -3.34050   0.75550   1.38470     3     7     2    28
 C    -0.76720   2.83330   0.20340     4     1     5    43
 C     0.31030   2.56770   1.05720     5     6     4    19
 C     1.57260   2.66750   0.51460     6    21     5    38
 C    -2.81600  -0.39140   1.84550     7     3     8    12
 C    -3.12360  -1.40770   0.99140     8     9     7    22
 C    -2.16520  -2.33890   0.82450     9     8    10    24
 C    -0.97430  -2.32580   1.57720    10    11     9    16
 C    -0.05940  -2.98300   0.86490    11    10    18    23
 C    -1.55450  -0.20250   2.37760    12     7    20    16
 C     2.44020   1.00280   1.81190    13    49    21    14
 C     1.15990   0.61860   2.25490    14    13    19    15
 C     0.83420  -0.80870   2.27400    15    16    14    17
 C    -0.56050  -1.18030   2.30880    16    12    10    15
 C     1.79260  -1.67930   1.58830    17    18    50    15
 C     1.26550  -2.73160   0.84140    18    11    48    17
 C     0.07450   1.55620   2.06360    19    20     5    14
 C    -1.25160   1.14920   2.20720    20    19    12     2
 C     2.70280   2.15450   1.07720    21    51     6    13
 C    -3.75850  -0.78230  -0.05240    22     8    28    26
 C    -0.53560  -3.24820  -0.36970    23    27    24    11
 C    -1.76270  -2.70920  -0.48200    24    23     9    25
 C    -2.00640  -1.75450  -1.51270    25    26    24    32
 C    -3.06450  -0.87210  -1.27450    26    30    25    22
 C     0.49650  -3.03020  -1.16650    27    23    48    31
 C    -4.04780   0.54400   0.21620    28    29     3    22
 C    -3.65200   1.26680  -0.85100    29    28    33    30
 C    -3.00660   0.41490  -1.71050    30    26    29    35
 C     0.41370  -1.94560  -1.99350    31    27    39    32
 C    -0.79810  -1.25240  -2.20040    32    31    34    25
 C    -2.76070   2.28430  -0.72120    33    36    29     1
 C    -0.67530   0.17310  -2.43440    34    35    32    41
 C    -1.83000   0.93660  -2.19050    35    36    30    34
 C    -1.75290   2.17660  -1.60990    36    43    33    35
 C     2.96300   1.85150  -0.92320    37    38    51    44
 C     1.74860   2.45520  -0.87450    38    37    42     6
 C     1.67520  -1.33740  -1.92520    39    40    31    45
 C     1.83140   0.04680  -2.07890    40    39    44    41
 C     0.62850   0.81910  -2.26930    41    40    42    34
 C     0.63790   2.13140  -1.62510    42    43    38    41
 C    -0.56560   2.62520  -1.18720    43    36    42     4
 C     2.98850   0.58160  -1.46630    44    37    47    40
 C     2.51760  -2.05580  -1.02720    45    48    46    39
 C     3.38700  -1.35050  -0.25730    46    45    47    50
 C     3.88120  -0.13350  -0.64140    47    52    46    44
 C     1.65970  -2.92690  -0.47980    48    45    27    18
 C     3.40150   0.12360   1.35280    49    50    52    13
 C     2.98020  -1.12900   1.08800    50    49    17    46
 C     3.71690   1.90410   0.20890    51    52    21    37
 C     4.20150   0.69460   0.39210    52    51    47    49
