    52
C52-C2-138                                                                      
 C     3.69980   0.60830  -0.97630     1     2    42     8
 C     3.29300  -0.58110  -1.44370     2     1     7    32
 C     1.55590   2.66510   0.63120     3     4    14    34
 C     2.72610   2.15190   0.21900     4     3    41     8
 C     0.29160  -2.24100  -1.60900     5     6    18    13
 C     1.62520  -1.98020  -1.57690     6     5     7    17
 C     2.09570  -0.77360  -2.07660     7     2     6    11
 C     2.79220   1.62870  -1.09950     8     1     4    10
 C     0.53980   2.36850  -1.47590     9    14    10    27
 C     1.58800   1.54600  -1.86850    10     9     8    11
 C     1.17590   0.26370  -2.39430    11     7    10    12
 C    -0.23890  -0.03370  -2.50300    12    13    28    11
 C    -0.63400  -1.36470  -2.15890    13     5    25    12
 C     0.59750   3.00280  -0.24690    14    52     3     9
 C     1.70510  -2.58600   0.63130    15    16    17    33
 C     0.36440  -2.88590   0.58910    16    15    20    18
 C     2.46040  -2.36300  -0.51790    17    32    15     6
 C    -0.36730  -2.91320  -0.59580    18    19     5    16
 C    -1.70670  -2.62640  -0.63140    19    18    22    25
 C    -0.28250  -2.23520   1.62290    20    21    16    39
 C    -1.61880  -1.98730   1.56790    21    20    40    22
 C    -2.45790  -2.38220   0.51100    22    23    19    21
 C    -3.51950  -1.53670   0.45950    23    22    43    26
 C    -2.94080  -0.78470  -1.61030    24    25    26    29
 C    -1.89600  -1.68240  -1.66480    25    24    13    19
 C    -3.94340  -0.83010  -0.64260    26    48    23    24
 C    -0.82390   2.12660  -1.66720    27     9    28    49
 C    -1.28130   0.92330  -2.24260    28    27    29    12
 C    -2.60800   0.55740  -1.87640    29    51    24    28
 C     3.92360  -0.83630   0.65090    30    42    32    31
 C     2.94510  -0.78650   1.64000    31    33    30    35
 C     3.52720  -1.52530  -0.47160    32    17     2    30
 C     1.89920  -1.67830   1.68980    33    31    39    15
 C     0.81470   2.12670   1.69840    34    47     3    36
 C     2.60580   0.55930   1.89270    35    41    31    36
 C     1.27730   0.92570   2.26680    36    34    35    38
 C    -1.16920   0.26720   2.38400    37    40    38    46
 C     0.24310  -0.04230   2.51940    38    39    36    37
 C     0.63900  -1.37100   2.19020    39    20    33    38
 C    -2.08840  -0.77100   2.04760    40    43    21    37
 C     3.43050   1.29060   1.02240    41    42     4    35
 C     4.16400   0.45310   0.29400    42    41    30     1
 C    -3.27970  -0.57620   1.41230    43    44    40    23
 C    -3.68120   0.60940   0.94800    44    43    48    45
 C    -2.77950   1.63150   1.07410    45    44    50    46
 C    -1.57700   1.55790   1.85570    46    47    45    37
 C    -0.53430   2.39270   1.48050    47    52    46    34
 C    -4.17560   0.46100  -0.31290    48    51    26    44
 C    -1.56810   2.71290  -0.61500    49    52    50    27
 C    -2.75080   2.18880  -0.24270    50    49    51    45
 C    -3.44150   1.31980  -1.03690    51    48    50    29
 C    -0.61760   3.03830   0.26270    52    14    49    47
