    52
C52-C1-275                                                                      
 C    -3.43790   0.66310   0.91300     1     2    26     6
 C    -3.79880  -0.14010  -0.09470     2     3     1    12
 C    -3.46720  -1.42780  -0.03350     3     2     8     4
 C    -2.64950  -1.94770   0.97470     4    11     3     5
 C    -2.06260  -1.08810   1.94950     5     4     6    10
 C    -2.54870   0.25730   1.90510     6    28     1     5
 C    -1.86770  -2.51820  -0.99650     7     8    21    11
 C    -2.83610  -1.67170  -1.22900     8     7    20     3
 C     0.10400  -0.13580   2.63950     9    29    39    10
 C    -0.66390  -1.31100   2.31570    10     9    50     5
 C    -1.77000  -2.77410   0.33130    11    51     7     4
 C    -3.26300   0.41250  -1.23470    12    13    20     2
 C    -2.74550   1.64020  -0.96710    13    12    14    26
 C    -1.56220   2.06650  -1.56790    14    13    23    15
 C    -0.79890   1.09400  -2.38210    15    16    18    14
 C     0.59730   1.30920  -2.43440    16    17    48    15
 C     1.20280   2.36030  -1.81620    17    22    36    16
 C    -1.26720  -0.27650  -2.45640    18    20    15    19
 C    -0.24910  -1.34290  -2.34160    19    21    47    18
 C    -2.56570  -0.53220  -1.93860    20    12     8    18
 C    -0.64180  -2.46680  -1.54450    21     7    44    19
 C     0.52520   3.10150  -0.95870    22    17    23    35
 C    -0.79690   2.96950  -0.76860    23    22    24    14
 C    -0.94710   3.04120   0.64050    24    25    27    23
 C    -1.97760   2.32930   1.18050    25    26    24    28
 C    -2.94920   1.82350   0.40050    26    25     1    13
 C     0.34180   3.00230   1.18480    27    35    30    24
 C    -1.70070   1.33690   2.12800    28    29     6    25
 C    -0.39960   1.15200   2.50920    29    28     9    30
 C     0.62880   1.99600   2.09520    30    27    29    31
 C     1.80940   1.25580   2.00440    31    30    39    33
 C     3.41690   0.29940   0.50140    32    34    33    43
 C     2.78300   1.47140   0.96790    33    37    32    31
 C     3.25070  -0.91110   1.14830    34    40    38    32
 C     1.24920   3.14880   0.18280    35    22    27    37
 C     2.39530   2.02020  -1.31170    36    17    41    37
 C     2.41650   2.43160   0.01680    37    35    36    33
 C     2.20040  -1.11820   2.00880    38    39    34    49
 C     1.48540  -0.04790   2.43640    39    38     9    31
 C     3.26790  -1.91020   0.26280    40    52    42    34
 C     2.72290   0.77960  -1.71650    41    36    43    48
 C     3.20670  -1.39350  -0.96430    42    40    43    46
 C     3.42160  -0.05110  -0.89160    43    42    41    32
 C     0.21500  -3.01990  -0.60360    44    45    21    51
 C     1.53410  -2.80790  -0.64960    45    44    52    46
 C     2.05660  -1.88280  -1.57440    46    42    45    47
 C     1.15860  -1.05890  -2.31590    47    48    46    19
 C     1.56130   0.28390  -2.40300    48    47    16    41
 C     1.53030  -2.28380   1.62750    49    52    38    50
 C     0.12770  -2.38430   1.72510    50    51    49    10
 C    -0.48770  -3.01920   0.63040    51    11    50    44
 C     2.24330  -2.72100   0.51880    52    40    45    49
