    52
C52-C1-211                                                                      
 C    -3.43070   0.57280   0.98250     1     2    34     6
 C    -3.14520   1.84160   0.71330     2     1     3    16
 C    -2.07700   2.35760   1.31960     3     2     8     4
 C    -1.20980   1.65770   2.12270     4     3    13     5
 C    -1.46050   0.28930   2.40050     5     4    10     6
 C    -2.66130  -0.23320   1.80040     6     1    36     5
 C    -0.02680   2.97480   0.73110     7     8    20    13
 C    -1.34720   3.01640   0.40480     8     3     7    15
 C    -0.45860  -1.89390   2.05540     9    50    37    10
 C    -0.29550  -0.54560   2.52500    10     9     5    11
 C     1.05340   0.00250   2.45610    11    52    10    12
 C     1.24200   1.39970   2.08530    12    13    14    11
 C     0.08010   2.12330   1.86630    13    12     4     7
 C     2.38900   1.76710   1.32310    14    49    12    19
 C    -1.86870   2.76410  -0.84730    15    17    16     8
 C    -3.00160   2.01050  -0.63680    16     2    15    23
 C    -0.90490   2.32980  -1.71500    17    15    18    21
 C     0.45440   2.49770  -1.48680    18    26    17    20
 C     2.23140   2.49140   0.10470    19    20    31    14
 C     0.97510   2.94790  -0.23250    20    19     7    18
 C    -1.06160   1.06850  -2.33040    21    27    17    22
 C    -2.19910   0.26180  -2.07900    22    24    23    21
 C    -3.19610   0.76750  -1.21250    23    16    34    22
 C    -1.91960  -1.11980  -2.03200    24    22    32    29
 C     2.42140   1.15890  -1.75880    25    26    31    39
 C     1.15260   1.48160  -2.12120    26    25    27    18
 C     0.22700   0.54710  -2.53920    27    26    21    28
 C     0.51980  -0.83020  -2.45890    28    29    27    40
 C    -0.60970  -1.62650  -2.24520    29    41    28    24
 C     3.89480   0.99450  -0.14330    30    31    49    43
 C     3.09860   1.85140  -0.77330    31    30    25    19
 C    -2.55190  -1.98200  -1.09710    32    35    33    24
 C    -3.23880  -1.37510  -0.06300    33    34    32    36
 C    -3.61800  -0.08770  -0.19560    34    33     1    23
 C    -1.64250  -2.94460  -0.80520    35    38    32    41
 C    -2.67490  -1.50190   1.23910    36    37     6    33
 C    -1.62990  -2.36130   1.42880    37    36    38     9
 C    -1.22590  -3.22830   0.44600    38    42    35    37
 C     2.78330  -0.19620  -1.66880    39    43    25    40
 C     1.81090  -1.21770  -1.90100    40    39    28    46
 C    -0.49690  -2.76160  -1.50940    41    35    29    47
 C     0.11140  -3.32870   0.43750    42    38    50    47
 C     3.76730  -0.25080  -0.68860    43    44    30    39
 C     3.48840  -1.13580   0.28830    44    43    45    48
 C     2.58460  -2.13230   0.19970    45    44    51    46
 C     1.82190  -2.36200  -0.98240    46    47    45    40
 C     0.64360  -3.06910  -0.81930    47    41    46    42
 C     3.21930  -0.37760   1.40380    48    49    52    44
 C     3.44060   0.90600   1.12080    49    48    30    14
 C     0.60410  -2.59950   1.47700    50    51    42     9
 C     1.82850  -2.06400   1.40540    51    50    52    45
 C     2.10740  -0.85310   2.00890    52    48    51    11
