    52
C52-C1-215                                                                      
 C     2.33110  -1.59950  -1.73480     1    28     2     4
 C     3.05480  -1.78760  -0.58250     2    10     1     3
 C     3.63090  -0.63960  -0.01630     3     8    24     2
 C     1.00550  -2.08540  -1.87180     4     5     1    34
 C     0.36630  -2.77550  -0.81650     5     6     9     4
 C    -1.00970  -2.66110  -0.73170     6     5    32    19
 C     2.56390  -1.72040   1.55610     7    10     8    14
 C     3.31500  -0.62210   1.31240     8     7    13     3
 C     1.10000  -2.86610   0.37340     9    10     5    21
 C     2.40140  -2.43810   0.43270    10     7     9     2
 C     2.10110   2.44290   0.34990    11    12    25    18
 C     3.04090   1.43520   0.55670    12    11    13    24
 C     2.89960   0.61530   1.69220    13     8    16    12
 C     1.37300  -1.65220   2.21280    14     7    15    21
 C     0.96240  -0.42640   2.70410    15    14    52    16
 C     1.72540   0.72220   2.44290    16    17    13    15
 C     0.82530   1.74320   2.25450    17    16    18    44
 C     1.05130   2.67770   1.26050    18    27    17    11
 C    -1.71240  -2.57430   0.49760    19    48    20     6
 C    -0.94770  -2.20150   1.62660    20    21    19    51
 C     0.42970  -2.44430   1.56010    21    14    20     9
 C     2.82890   0.78920  -1.73590    22    28    24    23
 C     1.83720   1.76140  -1.92990    23    25    22    29
 C     3.48270   0.63960  -0.52290    24     3    22    12
 C     1.54330   2.64280  -0.92260    25    26    23    11
 C     0.25560   3.00580  -0.73020    26    27    25    37
 C    -0.04190   3.09320   0.57550    27    26    18    47
 C     2.29010  -0.34780  -2.29080    28    30     1    22
 C     0.71960   1.17890  -2.59800    29    30    38    23
 C     1.07700  -0.11120  -2.79000    30    28    34    29
 C    -2.93210  -1.60820  -1.01650    31    35    32    48
 C    -1.77340  -1.88940  -1.64360    32    31    33     6
 C    -1.12870  -0.94410  -2.46170    33    34    32    36
 C     0.23400  -1.15190  -2.61550    34    30    33     4
 C    -3.55170  -0.42120  -1.06540    35    31    40    39
 C    -1.62970   0.43350  -2.37310    36    39    38    33
 C    -0.83370   2.52230  -1.41050    37    26    41    38
 C    -0.64040   1.49330  -2.35620    38    37    29    36
 C    -2.81830   0.61850  -1.60320    39    35    43    36
 C    -4.01200  -0.12350   0.17270    40    42    35    49
 C    -1.88260   2.49050  -0.48950    41    43    37    47
 C    -3.54400   1.08170   0.47470    42    40    43    45
 C    -2.92300   1.63640  -0.62760    43    41    42    39
 C    -0.48940   1.26380   2.45700    44    52    17    46
 C    -2.72210   0.94600   1.60670    45    46    42    50
 C    -1.62810   1.79040   1.79890    46    45    47    44
 C    -1.32950   2.72270   0.78610    47    27    46    41
 C    -2.92630  -2.02580   0.27050    48    19    49    31
 C    -3.50580  -1.06080   1.01990    49    48    40    50
 C    -2.65450  -0.44430   1.91040    50    49    51    45
 C    -1.41780  -1.00310   2.31630    51    52    50    20
 C    -0.39310  -0.11830   2.71920    52    15    44    51
