    52
C52-C1-409                                                                      
 C     3.03800  -1.20460   0.96460     1    30     2     3
 C     3.33430  -0.24360   0.02770     2     1     6    11
 C     2.33410  -2.36510   0.71760     3     4    39     1
 C     1.91080  -2.57660  -0.56230     4     3     5     8
 C     2.24290  -1.63930  -1.56860     5    16     4     6
 C     2.94450  -0.43380  -1.32680     6     5     7     2
 C     2.43350   0.71440  -1.98450     7    12     6    15
 C     0.56710  -2.99670  -0.76330     8    49     4    10
 C    -1.71250  -2.60570  -0.05420     9    10    43    52
 C    -0.40630  -3.03620   0.27790    10    38     9     8
 C     3.10230   0.99100   0.69760    11    13    29     2
 C     2.40250   1.92500  -1.36610    12    21     7    13
 C     2.68500   2.06660  -0.02460    13    11    17    12
 C     0.58470  -0.49960  -2.89870    14    15    16    22
 C     1.20900   0.68390  -2.71960    15    14    20     7
 C     1.14540  -1.62250  -2.37280    16    49     5    14
 C     1.65560   2.82690   0.44080    17    18    13    27
 C     0.82790   3.17470  -0.56860    18    21    19    17
 C    -0.45390   3.10460  -0.16480    19    18    32    25
 C     0.43470   1.81750  -2.42670    20    21    15    24
 C     1.26320   2.59090  -1.67860    21    18    12    20
 C    -0.80050  -0.64190  -2.77460    22    14    50    23
 C    -1.64050   0.46970  -2.43680    23    47    22    24
 C    -0.97250   1.73920  -2.15850    24    20    23    25
 C    -1.45960   2.51150  -0.99570    25    26    19    24
 C    -2.57300   2.02840  -0.30800    26    48    37    25
 C     0.93000   2.50510   1.55860    27    17    32    28
 C     1.28510   1.38420   2.34510    28    27    29    35
 C     2.48280   0.70530   1.94260    29    30    11    28
 C     2.56660  -0.62980   2.09680    30    31    29     1
 C     1.55730  -1.38220   2.52640    31    30    39    36
 C    -0.39540   2.79910   1.22390    32    33    27    19
 C    -1.41570   2.10770   1.77310    33    37    32    34
 C    -1.14790   0.96020   2.53990    34    33    35    40
 C     0.17290   0.55770   2.82010    35    34    36    28
 C     0.34960  -0.84910   2.84130    36    31    35    42
 C    -2.54620   1.88010   1.07850    37    44    33    26
 C     0.08030  -2.68690   1.54600    38    39    10    42
 C     1.40920  -2.45510   1.73010    39    31    38     3
 C    -2.21620   0.06450   2.24200    40    44    41    34
 C    -1.91590  -1.30340   1.99580    41    42    40    43
 C    -0.63620  -1.73220   2.32620    42    41    36    38
 C    -2.52180  -1.85200   0.83000    43    46     9    41
 C    -3.12800   0.72550   1.44070    44    45    37    40
 C    -3.66600   0.17860   0.35050    45    44    46    48
 C    -3.38320  -1.09450   0.05660    46    45    51    43
 C    -2.80400   0.11200  -1.72430    47    48    51    23
 C    -3.27340   0.92710  -0.72860    48    47    45    26
 C     0.18420  -2.43960  -1.95410    49    16    50     8
 C    -1.03570  -1.93950  -2.23790    50    49    52    22
 C    -2.98180  -1.18360  -1.22800    51    52    46    47
 C    -2.04920  -2.13470  -1.35980    52    51    50     9
