    52
C52-C1-252                                                                      
 C    -3.56670   1.48970   0.09380     1    32     4     2
 C    -3.04480   1.31720   1.31970     2     1    34     8
 C    -1.71180   2.67340   0.25860     3     5     4     8
 C    -2.68400   2.21890  -0.58750     4     1     3    11
 C    -0.44140   2.85870  -0.16800     5     3    24     9
 C    -0.88390   0.25590   2.66650     6    51    35     7
 C    -0.78620   1.62380   2.23810     7     8    25     6
 C    -1.90210   2.06460   1.51270     8     2     7     3
 C    -0.07650   2.42620  -1.45990     9    14     5    10
 C    -0.97840   1.59110  -2.19030    10    11     9    17
 C    -2.30720   1.52620  -1.72060    11     4    12    10
 C    -3.05370   0.33110  -1.67260    12    13    32    11
 C    -2.38990  -0.80630  -2.03490    13    12    27    18
 C     1.29250   2.27260  -1.45710    14     9    15    21
 C     1.90120   1.27750  -2.19280    15    19    14    16
 C     1.05380   0.27660  -2.67480    16    15    17    37
 C    -0.35210   0.40110  -2.71550    17    16    18    10
 C    -1.08530  -0.79700  -2.55590    18    13    17    28
 C     3.05790   0.73220  -1.70990    19    22    43    15
 C     2.94880   1.91090   0.25950    20    23    22    21
 C     1.79420   2.54150  -0.16650    21    20    24    14
 C     3.65770   1.04330  -0.53850    22    19    20    45
 C     2.81650   1.27930   1.46970    23    48    20    26
 C     0.67170   2.72610   0.64080    24     5    21    25
 C     0.53890   2.05710   1.90370    25    26     7    24
 C     1.66090   1.26210   2.21080    26    23    52    25
 C    -2.46460  -1.89920  -1.20810    27    29    13    30
 C    -0.42040  -1.96940  -2.11980    28    29    38    18
 C    -1.30290  -2.55230  -1.25790    29    27    40    28
 C    -2.95590  -1.84880   0.07710    30    27    31    33
 C    -3.59330  -0.68120   0.44600    31    30    32    34
 C    -3.82150   0.32250  -0.49050    32     1    31    12
 C    -1.92620  -2.44960   0.82900    33    36    40    30
 C    -3.05120  -0.02880   1.58350    34     2    35    31
 C    -1.97190  -0.55520   2.26400    35    34    36     6
 C    -1.44070  -1.80370   1.96170    36    50    35    33
 C     1.70030  -0.94190  -2.34460    37    43    38    16
 C     0.95180  -2.02690  -1.90760    38    37    28    41
 C     0.40620  -2.95500   0.27830    39    40    49    41
 C    -0.93440  -2.96530  -0.02210    40    29    39    33
 C     1.38750  -2.59090  -0.66170    41    44    39    38
 C     3.37130  -1.17580  -0.58210    42    43    44    45
 C     2.88800  -0.61080  -1.74240    43    19    37    42
 C     2.51730  -2.10010   0.00910    44    42    41    46
 C     3.89680  -0.11930   0.15730    45    48    22    42
 C     2.14390  -1.96420   1.36230    46    49    47    44
 C     2.55660  -0.81040   2.03710    47    48    46    52
 C     3.40800   0.04640   1.41460    48    47    45    23
 C     0.85440  -2.45540   1.49680    49    46    39    50
 C    -0.09490  -1.80110   2.28370    50    36    51    49
 C     0.24580  -0.54830   2.78140    51    52    50     6
 C     1.51820  -0.06600   2.62930    52    51    26    47
