   180
C180                                                                            
 C     5.94060   0.59650  -0.41930     1    65     2     5
 C     5.93570  -0.73530  -0.16200     2    71     3     1
 C     5.66630  -1.38200  -1.32280     3    77     4     2
 C     5.50750  -0.45190  -2.29460     4    83     5     3
 C     5.67810   0.77110  -1.73860     5    89     4     1
 C     2.83010   5.12760   1.23450     6    95    10     7
 C     3.83470   4.56120   0.52130     7    66     8     6
 C     3.57290   4.73550  -0.79620     8    88     7     9
 C     2.39920   5.40580  -0.89720     9   101    10     8
 C     1.94210   5.65200   0.35430    10   107     9     6
 C     3.37000  -0.17130   4.94290    11   113    15    12
 C     4.38070   0.08380   4.07510    12    70    13    11
 C     4.38280   1.41520   3.81810    13    64    12    14
 C     3.37330   1.97720   4.52830    14    94    15    13
 C     2.75020   0.99860   5.22730    15   119    11    14
 C     2.37120  -5.36250   1.18010    16   125    20    17
 C     3.54640  -4.70310   1.03000    17    76    18    16
 C     3.81640  -4.05840   2.19080    18    72    17    19
 C     2.80660  -4.31830   3.05820    19   112    20    18
 C     1.91470  -5.12670   2.43360    20   131    16    19
 C     1.21740  -3.27530  -4.86340    21   137    22    25
 C     2.49140  -3.19300  -4.40510    22    82    23    21
 C     2.65450  -4.12300  -3.43440    23    78    22    24
 C     1.47620  -4.77650  -3.28620    24   124    25    23
 C     0.59020  -4.25790  -4.16960    25   143    24    21
 C     1.49520   3.20730  -4.82930    26   102    30    27
 C     2.66790   2.53390  -4.72220    27    90    28    26
 C     2.50350   1.31170  -5.28280    28    84    27    29
 C     1.22700   1.23160  -5.73180    29   136    30    28
 C     0.60550   2.40280  -5.45710    30   149    26    29
 C    -5.93570  -0.59440   0.42270    31   155    32    35
 C    -5.67490  -0.76940   1.74010    32   161    31    33
 C    -5.50630   0.45710   2.29310    33   167    34    32
 C    -5.66940   1.38700   1.32150    34   173    33    35
 C    -5.93590   0.73720   0.16170    35   179    34    31
 C    -1.94110  -5.64480  -0.34860    36   126    37    40
 C    -2.40080  -5.40690   0.90320    37   130    36    38
 C    -3.57220  -4.73310   0.79580    38   160    37    39
 C    -3.83120  -4.55720  -0.52420    39   154    40    38
 C    -2.82610  -5.12390  -1.23370    40   142    39    36
 C    -0.60830  -2.40370   5.45100    41   114    45    42
 C    -1.22900  -1.22950   5.72670    42   118    43    41
 C    -2.50360  -1.31650   5.27460    43   166    44    42
 C    -2.66790  -2.54160   4.72150    44   162    43    45
 C    -1.49840  -3.21580   4.83180    45   132    44    41
 C    -0.59120   4.25700   4.16640    46    96    47    50
 C    -1.47730   4.78080   3.28550    47   106    46    48
 C    -2.65030   4.11680   3.43640    48   172    49    47
 C    -2.48640   3.19020   4.41060    49   168    50    48
 C    -1.21440   3.27630   4.86590    50   120    49    46
 C    -1.91330   5.12020  -2.42570    51   100    55    52
 C    -2.80240   4.31240  -3.05500    52   148    51    53
 C    -3.81120   4.05680  -2.18500    53   178    54    52
 C    -3.54830   4.70870  -1.02640    54   174    55    53
 C    -2.37370   5.36730  -1.17590    55   108    51    54
 C    -2.75150  -1.00080  -5.22350    56   138    57    60
 C    -3.37950  -1.97970  -4.52910    57   144    58    56
 C    -4.38810  -1.41580  -3.82380    58   156    57    59
 C    -4.38430  -0.08480  -4.08200    59   180    58    60
 C    -3.37290   0.17320  -4.94870    60   150    56    59
 C     5.57710   1.08350   1.83600    61    65    64    67
 C     4.43850   3.23390   2.34680    62    66    64    91
 C     5.28420   2.79100   0.04890    63    66    65    85
 C     4.93750   1.97320   2.71950    64    13    62    61
 C     5.74720   1.54940   0.51980    65     1    63    61
 C     4.65680   3.60500   1.00830    66     7    63    62
 C     5.57430  -0.34890   2.11230    67    71    70    61
 C     4.42640  -2.15060   3.39110    68    70    72   109
 C     5.26880  -2.59390   1.09270    69    72    71    73
 C     4.93250  -0.84460   3.26330    70    12    68    67
 C     5.74000  -1.27030   1.06310    71     2    69    67
 C     4.64190  -2.99270   2.28460    72    18    69    68
 C     4.98110  -3.29150  -0.15470    73    76    77    69
 C     3.34730  -4.77230  -1.30340    74    78    76   121
 C     4.49930  -2.97310  -2.57300    75    77    78    79
 C     4.07280  -4.36590  -0.16980    76    17    74    73
 C     5.17630  -2.64090  -1.38770    77     3    75    73
 C     3.61360  -4.06120  -2.48620    78    23    74    75
 C     4.32560  -1.97330  -3.62020    79    83    82    75
 C     2.69660  -1.01610  -5.23840    80    82    84   133
 C     4.33340   0.46670  -4.09490    81    83    84    87
 C     3.26990  -2.09560  -4.54410    82    22    80    79
 C     4.83730  -0.67480  -3.44870    83     4    81    79
 C     3.27860   0.24260  -4.99800    84    28    81    80
 C     5.00110   2.97520  -1.36880    85    89    88    63
 C     3.37090   3.93170  -2.98480    86    90    88    99
 C     4.51340   1.78380  -3.49510    87    89    90    81
 C     4.09730   3.97270  -1.78120    88     8    86    85
 C     5.19190   1.91430  -2.27160    89     5    87    85
 C     3.63030   2.82940  -3.81860    90    27    86    87
 C     3.35530   3.83830   3.11290    91    94    95    62
 C     1.50250   3.36900   4.70820    92    94    96   117
 C     1.20710   5.07450   2.91980    93    96    95   103
 C     2.80700   3.16710   4.22090    94    14    91    92
 C     2.52450   4.80090   2.51020    95     6    93    91
 C     0.75140   4.35030   4.03430    96    46    93    92
 C     0.26130   5.69300  -1.79430    97   101   100   105
 C    -0.22800   4.50100  -3.92490    98   100   102   145
 C     2.11060   4.65470  -3.09810    99   102   101    86
 C    -0.61880   5.24320  -2.79750   100    51    98    97
 C     1.62070   5.39090  -2.00420   101     9    99    97
 C     1.15220   4.25230  -4.04230   102    26    99    98
 C     0.25520   5.63800   1.96900   103   107   106    93
 C    -2.08430   5.48330   1.14000   104   106   108   170
 C    -0.23060   5.95560  -0.44780   105   107   108    97
 C    -1.12660   5.45600   2.16810   106    47   104   103
 C     0.64870   5.90900   0.64650   107    10   105   103
 C    -1.59020   5.76060  -0.14830   108    55   105   104
 C     3.34110  -2.42890   4.32250   109   112   113    68
 C     1.18430  -3.63500   4.60310   110   112   114   129
 C     1.49470  -1.38840   5.62330   111   113   114   115
 C     2.50300  -3.54070   4.12210   112    19   109   110
 C     2.79910  -1.38800   5.09960   113    11   111   109
 C     0.73410  -2.54270   5.36710   114    41   111   110
 C     0.82690  -0.12770   5.92340   115   119   118   111
 C    -1.32370   1.10600   5.72560   116   118   120   164
 C     0.83250   2.31330   5.45590   117   119   120    92
 C    -0.57910  -0.06470   5.95260   118    42   116   115
 C     1.48580   1.09320   5.69450   119    15   117   115
 C    -0.57150   2.27530   5.50530   120    50   117   116
 C     2.08400  -5.47980  -1.13790   121   125   124    74
 C    -0.25530  -5.63370  -1.96610   122   126   124   139
 C     0.23070  -5.95420   0.45400   123   126   125   127
 C     1.12480  -5.45150  -2.16760   124    24   122   121
 C     1.58950  -5.75730   0.14900   125    16   121   123
 C    -0.64750  -5.90410  -0.64310   126    36   122   123
 C    -0.26090  -5.69470   1.80130   127   131   130   123
 C    -2.11070  -4.65830   3.10220   128   132   130   158
 C     0.22940  -4.50830   3.93000   129   131   132   110
 C    -1.62110  -5.39420   2.00760   130    37   128   127
 C     0.62070  -5.25020   2.80300   131    20   129   127
 C    -1.14910  -4.25880   4.04770   132    45   129   128
 C     1.32480  -1.10600  -5.72510   133   137   136    80
 C    -0.82670   0.12640  -5.92430   134   138   136   147
 C    -0.83270  -2.31670  -5.45360   135   138   137   141
 C     0.57880   0.06580  -5.95410   136    29   134   133
 C     0.57250  -2.27350  -5.50360   137    21   133   135
 C    -1.48540  -1.09440  -5.69230   138    56   135   134
 C    -1.20610  -5.07110  -2.91790   139   143   142   122
 C    -3.35630  -3.83580  -3.11560   140   144   142   152
 C    -1.50400  -3.37190  -4.70700   141   143   144   135
 C    -2.52500  -4.79620  -2.51020   142    40   140   139
 C    -0.75120  -4.34940  -4.03600   143    25   141   139
 C    -2.80860  -3.16690  -4.22480   144    57   141   140
 C    -1.18410   3.63010  -4.59950   145   149   148    98
 C    -3.34400   2.42360  -4.32360   146   148   150   176
 C    -1.49450   1.38780  -5.62530   147   150   149   134
 C    -2.50400   3.53340  -4.11940   148    52   146   145
 C    -0.73450   2.54190  -5.36800   149    30   147   145
 C    -2.79830   1.38680  -5.10360   150    60   147   146
 C    -5.28210  -2.78640  -0.04890   151   154   155   157
 C    -4.43990  -3.22970  -2.34990   152   154   156   140
 C    -5.58160  -1.08230  -1.83860   153   155   156   177
 C    -4.65460  -3.60040  -1.01090   154    39   152   151
 C    -5.74710  -1.54440  -0.52180   155    31   153   151
 C    -4.94350  -1.96950  -2.72300   156    58   153   152
 C    -4.99750  -2.97540   1.36780   157   160   161   151
 C    -3.37150  -3.93370   2.98690   158   162   160   128
 C    -4.51240  -1.78380   3.49440   159   161   162   163
 C    -4.09640  -3.97220   1.78180   160    38   157   158
 C    -5.18950  -1.91320   2.27080   161    32   159   157
 C    -3.63200  -2.83060   3.81940   162    44   159   158
 C    -4.33190  -0.46660   4.09240   163   167   166   159
 C    -2.69540   1.01560   5.23780   164   166   168   116
 C    -4.32420   1.97410   3.62040   165   167   168   169
 C    -3.27600  -0.24160   4.99570   166    43   164   163
 C    -4.83560   0.67700   3.44730   167    33   165   163
 C    -3.27010   2.09710   4.54330   168    49   165   164
 C    -4.49720   2.97340   2.57230   169   173   172   165
 C    -3.34830   4.77430   1.30130   170   172   174   104
 C    -4.98450   3.29150   0.15260   171   173   174   175
 C    -3.60960   4.06190   2.48420   172    48   170   169
 C    -5.17700   2.64390   1.38570   173    34   171   169
 C    -4.07750   4.36590   0.16870   174    54   171   170
 C    -5.26910   2.59410  -1.09490   175   178   179   171
 C    -4.42920   2.14530  -3.39250   176   180   178   146
 C    -5.57870   0.34880  -2.11590   177   179   180   153
 C    -4.63860   2.99100  -2.28840   178    53   176   175
 C    -5.74200   1.26840  -1.06660   179    35   177   175
 C    -4.93810   0.84050  -3.26730   180    59   176   177
