   100
C100-C1-239                                                                     
 C     3.78140   2.50800   1.44740     1     2    16    12
 C     4.45060   1.39000   1.20240     2     1     3    15
 C     4.20350   0.28370   1.93010     3     2    67     7
 C     3.09110  -2.11330   2.33880     4    72    66     6
 C     1.26750  -1.20570   3.62290     5     6     9    75
 C     2.59930  -1.06310   3.13530     6     4     7     5
 C     3.18650   0.21480   2.92710     7     6     3    11
 C    -0.83960  -0.06850   3.92500     8    76     9    20
 C     0.54540   0.02570   3.88860     9     8    10     5
 C     1.07510   1.33860   3.61150    10    11     9    22
 C     2.43020   1.40630   3.15590    11    12     7    10
 C     2.80100   2.53260   2.39980    12    24     1    11
 C     4.28830   1.77560  -1.10560    13    15    14    29
 C     3.66340   2.94700  -0.84960    14    13    16    46
 C     4.74140   1.02240  -0.09190    15    28    13     2
 C     3.43450   3.33340   0.42710    16    17    14     1
 C     2.29800   3.95510   0.75050    17    16    18    24
 C     1.37380   4.32340  -0.20840    18    19    17    45
 C     0.11900   4.48100   0.26630    19    18    48    25
 C    -1.71250   0.97570   3.64550    20    21    95     8
 C    -1.27860   2.22740   3.27080    21    20    22    99
 C     0.14510   2.43710   3.27650    22    23    21    10
 C     0.61990   3.48360   2.43280    23    24    25    22
 C     1.91100   3.49440   2.01550    24    23    12    17
 C    -0.25710   4.11120   1.57070    25   100    23    19
 C     0.93310  -2.46030  -3.33920    26    38    51    27
 C     2.23660  -2.08650  -2.97340    27    26    53    32
 C     4.73090  -0.31580  -0.18230    28    15    67    31
 C     3.73190   1.17280  -2.19800    29    13    33    30
 C     3.68100  -0.21840  -2.36650    30    29    32    31
 C     4.25720  -1.02220  -1.31590    31    52    28    30
 C     2.60990  -0.71370  -3.16990    32    30    27    35
 C     2.75430   2.04830  -2.65230    33    34    29    46
 C     1.66880   1.63510  -3.37790    34    33    40    35
 C     1.60920   0.22550  -3.70030    35    37    34    32
 C    -0.77820   0.54190  -3.98050    36    44    37    57
 C     0.32410  -0.27390  -4.01640    37    38    36    35
 C     0.01150  -1.58840  -3.82400    38    26    37    59
 C     0.39770   3.57720  -2.35040    39    45    47    40
 C     0.49320   2.46580  -3.28120    40    44    34    39
 C    -3.16980   3.10120  -1.43850    41    94    88    42
 C    -2.07350   3.25610  -2.28030    42    43    41    47
 C    -1.93650   2.23100  -3.16770    43    42    44    90
 C    -0.70190   1.86220  -3.62750    44    43    36    40
 C     1.54250   3.86670  -1.55700    45    46    39    18
 C     2.70350   3.14660  -1.79860    46    14    45    33
 C    -0.90610   3.92160  -1.84390    47    48    42    39
 C    -0.97610   4.37720  -0.51900    48    19    92    47
 C     1.99250  -3.89780  -1.39570    49    50    63    53
 C     0.72730  -4.17190  -1.79430    50    51    49    55
 C     0.19620  -3.46800  -2.77230    51    50    60    26
 C     3.78140  -2.32430  -1.07890    52    53    31    65
 C     2.82000  -2.88640  -1.93630    53    52    49    27
 C    -1.91050  -4.14410   0.52630    54    86    56    70
 C    -0.06830  -4.58960  -0.76840    55    50    68    56
 C    -1.42990  -4.31640  -0.74770    56    54    55    62
 C    -2.06620   0.08390  -3.68280    57    90    58    36
 C    -2.35560  -1.22510  -3.35000    58    59    57    82
 C    -1.27340  -2.04800  -3.49580    59    60    58    38
 C    -1.14500  -3.19840  -2.79710    60    59    51    62
 C    -3.18080  -2.72790  -1.57860    61    85    62    82
 C    -2.04630  -3.57970  -1.80230    62    60    56    61
 C     1.98140  -4.22880  -0.06590    63    64    68    49
 C     2.79750  -3.60460   0.75720    64    63    65    72
 C     3.72160  -2.74260   0.27860    65    64    66    52
 C     3.99780  -1.92100   1.31900    66    67    65     4
 C     4.52230  -0.75760   1.10770    67    66     3    28
 C     0.74110  -4.59050   0.34850    68    63    55    69
 C     0.26680  -4.24080   1.60600    69    70    68    71
 C    -1.08140  -4.08020   1.65110    70    73    69    54
 C     1.08580  -3.44550   2.46750    71    72    69    75
 C     2.36190  -3.21160   2.01010    72     4    71    64
 C    -1.65330  -3.24280   2.54560    73    70    77    74
 C    -0.89350  -2.40820   3.37220    74    76    73    75
 C     0.51750  -2.44010   3.32560    75    74    71     5
 C    -1.52800  -1.23680   3.69590    76    74     8    80
 C    -2.88770  -2.88250   2.04050    77    79    73    86
 C    -4.30690  -1.12850   1.51400    78    79    96    84
 C    -3.49720  -1.73650   2.42360    79    77    78    80
 C    -2.79860  -0.91690   3.27340    80    95    79    76
 C    -4.11820  -0.40420  -1.89330    81    83    89    82
 C    -3.37430  -1.52810  -2.39480    82    58    81    61
 C    -4.61660  -0.50810  -0.59410    83    84    91    81
 C    -4.38720  -1.59480   0.19600    84    83    85    78
 C    -3.70160  -2.70760  -0.24620    85    84    86    61
 C    -3.01490  -3.39000   0.75510    86    54    77    85
 C    -4.44670   1.80820  -0.17610    87    91    88    93
 C    -4.00440   1.99730  -1.45690    88    87    41    89
 C    -3.81890   0.92540  -2.32220    89    90    88    81
 C    -2.77620   1.12510  -3.19110    90    57    89    43
 C    -4.74510   0.58410   0.23910    91    87    96    83
 C    -2.03880   4.12240   0.30050    92    94    48   100
 C    -3.84640   2.70780   0.66960    93    94    87    98
 C    -3.12910   3.52230  -0.13900    94    92    93    41
 C    -2.92480   0.44450   3.24550    95    80    97    20
 C    -4.48020   0.23230   1.52480    96    91    78    97
 C    -3.79030   1.09430   2.39380    97    95    98    96
 C    -3.42220   2.37530   1.97260    98    97    93    99
 C    -2.19070   2.95590   2.42510    99   100    98    21
 C    -1.58660   3.87040   1.57450   100    25    92    99
