   100
C100-C1-95                                                                      
 C    -3.43030   2.98300  -0.22480     1     2    58     4
 C    -4.38500   1.97110  -0.26900     2     3     1    43
 C    -4.79440   1.28220   0.84700     3     6    19     2
 C    -2.79360   3.26890   1.04820     4     5     8     1
 C    -3.15400   2.42550   2.08820     5     6     4    12
 C    -4.12240   1.48570   2.00070     6     3     5    20
 C    -0.95330   4.24320  -0.06800     7    14    61     8
 C    -1.50820   3.84040   1.13520     8     7     4    10
 C     0.81840   3.73300   1.95660     9    13    16    10
 C    -0.56650   3.49970   2.17940    10     9    11     8
 C    -0.93840   2.43910   3.08610    11    12    23    10
 C    -2.21460   1.97680   3.00920    12    11    21     5
 C     1.71190   2.94190   2.66730    13    97    24     9
 C     0.39930   4.40000  -0.26660    14    16     7    63
 C     2.57850   3.83970   0.28080    15    96    16    62
 C     1.31390   4.21300   0.71800    16    14    15     9
 C    -4.84220  -1.01810   1.32770    17    28    18    19
 C    -4.11060  -0.81040   2.45570    18    20    17    35
 C    -5.17220   0.02450   0.49770    19     3    27    17
 C    -3.76620   0.43830   2.79540    20    18    21     6
 C    -2.56940   0.69120   3.38200    21    20    12    22
 C    -1.62540  -0.29930   3.69750    22    21    33    34
 C     0.01690   1.52930   3.64240    23    24    11    33
 C     1.32360   1.86630   3.43650    24    23    90    13
 C    -4.53470  -1.24360  -1.36060    25    27    44    26
 C    -4.26280  -2.30020  -0.53750    26    28    30    25
 C    -4.98340  -0.07970  -0.84470    27    25    19    43
 C    -4.37860  -2.17710   0.80300    28    26    17    29
 C    -3.38870  -2.69170   1.60410    29    28    32    35
 C    -3.24070  -3.00810  -1.07520    30    26    31    45
 C    -2.32510  -3.70690  -0.29750    31    53    30    32
 C    -2.37000  -3.48560   1.13530    32    29    37    31
 C    -0.29040   0.11990   3.87420    33    22    38    23
 C    -1.94950  -1.63430   3.27700    34    35    40    22
 C    -3.19510  -1.81140   2.65280    35    18    29    34
 C    -0.09310  -4.03680   1.25630    36    95    37    52
 C    -1.17670  -3.50230   1.89940    37    36    32    40
 C     0.76980  -0.85870   3.76730    38    91    33    39
 C     0.45180  -2.19970   3.28880    39    94    40    38
 C    -0.91150  -2.54700   2.97280    40    34    39    37
 C    -3.62350   1.13750  -2.43640    41    43    57    42
 C    -3.16610  -0.11810  -3.00720    42    44    48    41
 C    -4.49560   1.09330  -1.35140    43    27    41     2
 C    -3.64870  -1.26980  -2.39580    44    25    45    42
 C    -2.87900  -2.40760  -2.28150    45    46    44    30
 C    -1.63580  -2.55320  -2.84840    46    45    54    47
 C    -1.09950  -1.44300  -3.60100    47    48    46    51
 C    -1.89310  -0.24370  -3.62960    48    49    42    47
 C    -1.18990   0.92580  -3.78750    49    48    56    72
 C     1.09440  -2.37650  -3.26430    50    51    55    73
 C     0.33450  -1.34340  -3.76830    51    50    71    47
 C    -0.07310  -4.33010  -0.10160    52    86    53    36
 C    -1.13450  -4.02760  -0.93340    53    52    31    54
 C    -0.78880  -3.49100  -2.22910    54    55    46    53
 C     0.55380  -3.40620  -2.52520    55    87    54    50
 C    -1.63930   2.12060  -3.26710    56    59    49    57
 C    -2.79080   2.26100  -2.50140    57    56    41    58
 C    -2.70760   3.20230  -1.40930    58    61     1    57
 C    -0.52790   2.87900  -3.11320    59    60    56    65
 C    -0.48240   3.79120  -2.14680    60    59    63    61
 C    -1.52360   3.89720  -1.28000    61    60    58     7
 C     2.84880   3.48030  -1.03520    62    64    70    15
 C     0.69700   4.09550  -1.58680    63    60    14    64
 C     1.89480   3.52530  -2.00310    64    62    63    67
 C     0.60860   2.22700  -3.49670    65    59    72    67
 C     2.81080   1.42640  -2.96820    66    67    69    75
 C     1.86860   2.49410  -2.98380    67    65    64    66
 C     4.44580   0.33510  -1.52950    68    76    69    78
 C     3.84680   1.49820  -1.97710    69    68    70    66
 C     3.82320   2.51700  -1.02400    70    62    80    69
 C     1.02930  -0.09720  -3.89590    71    72    51    75
 C     0.19520   0.99170  -3.91580    72    65    71    49
 C     2.42050  -2.23650  -2.89220    73    74    50    82
 C     3.08620  -1.02620  -2.96180    74    73    76    75
 C     2.39760   0.10970  -3.45270    75    74    71    66
 C     4.09770  -0.89700  -2.01690    76    68    74    84
 C     4.80360  -1.16610   0.05690    77    84    81    78
 C     4.89910   0.16880  -0.21510    78    77    79    68
 C     4.72580   1.13290   0.76220    79    80    78    98
 C     4.22400   2.32860   0.29490    80    96    79    70
 C     4.44130  -1.56550   1.30910    81   100    88    77
 C     2.69570  -3.19110  -1.91860    82    87    83    73
 C     3.61900  -3.00310  -0.91030    83    84    82    89
 C     4.35410  -1.84870  -1.03370    84    77    83    76
 C     2.03490  -4.03440   0.54830    85    86    89    95
 C     1.21830  -4.30720  -0.49450    86    87    52    85
 C     1.53950  -3.86770  -1.71510    87    86    82    55
 C     3.64030  -2.65680   1.46280    88    81    89    93
 C     3.25970  -3.42890   0.39250    89    88    85    83
 C     2.35400   0.96540   3.45570    90    24    91    99
 C     2.11070  -0.38740   3.59980    91    90    92    38
 C     3.08870  -1.16660   3.00690    92    93    91   100
 C     2.78430  -2.40370   2.53260    93    92    94    88
 C     1.50990  -2.92330   2.64790    94    95    93    39
 C     1.20020  -3.81130   1.63850    95    36    94    85
 C     3.41790   3.12290   1.05820    96    97    15    80
 C     2.99300   2.68170   2.25400    97    96    99    13
 C     4.32230   0.69750   2.05160    98   100    99    79
 C     3.41650   1.48550   2.72870    99    97    98    90
 C     4.15560  -0.64490   2.26870   100    81    98    92
