   100
C100-C1-248                                                                     
 C     3.19490  -3.14620   0.28150     1     6     2    66
 C     3.97680  -2.12860   0.73580     2     1     3    10
 C     4.47940  -1.33810  -0.29100     3     4     2    42
 C     4.83880  -0.06030  -0.06450     4     3     5    14
 C     4.62980   0.49260   1.15260     5     4    15    11
 C     2.24310  -3.70710   1.07060     6     1    70     8
 C     0.60710  -3.42970   2.68030     7    26     8    71
 C     1.92310  -3.19600   2.32700     8     7     6     9
 C     2.60170  -2.03520   2.80460     9     8    10    28
 C     3.69150  -1.55180   2.02000    10    11     9     2
 C     4.02560  -0.21230   2.15340    11     5    30    10
 C     4.23320   1.93020  -1.10350    12    14    13    35
 C     4.07910   2.51660   0.11180    13    17    15    12
 C     4.60420   0.65020  -1.20220    14    12    34     4
 C     4.24390   1.78910   1.23950    15    13     5    19
 C     1.05000   4.14920   0.77070    16    18    25    37
 C     3.09010   3.41650   0.03300    17    13    18    36
 C     2.26860   3.66790   1.12300    18    16    17    23
 C     3.38460   1.92860   2.29370    19    15    30    23
 C    -0.09900   0.88600   4.12150    20    93    21    31
 C     1.16060   1.33280   3.78610    21    20    29    22
 C     1.21430   2.61370   3.10120    22    23    24    21
 C     2.36800   2.88280   2.31030    23    19    22    18
 C    -0.03520   3.26560   2.75310    24    25    94    22
 C    -0.04720   4.01400   1.57140    25    16    89    24
 C    -0.08500  -2.59170   3.48540    26     7    27    98
 C     0.50860  -1.43870   3.96810    27    31    26    28
 C     1.84420  -1.09910   3.63890    28    27    29     9
 C     2.16590   0.31420   3.61260    29    30    21    28
 C     3.26930   0.68350   2.89080    30    29    11    19
 C    -0.41550  -0.45390   4.22510    31    27    20   100
 C     3.10720   0.28390  -3.06170    32    34    44    33
 C     2.70240   1.68130  -2.97310    33    35    40    32
 C     4.05300  -0.16200  -2.14080    34    14    42    32
 C     3.30000   2.43340  -1.95960    35    12    36    33
 C     2.62200   3.42230  -1.28520    36    38    35    17
 C     0.61170   4.25120  -0.55100    37    60    38    16
 C     1.35120   3.79050  -1.62460    38    36    37    39
 C     0.67890   3.18320  -2.71950    39    38    62    40
 C     1.40620   2.10510  -3.37110    40    41    33    39
 C     0.64690   1.13490  -3.97840    41    64    40    43
 C     4.02820  -1.43200  -1.61620    42    46    34     3
 C     1.02840  -0.21010  -4.05500    43    47    44    41
 C     2.20450  -0.70570  -3.54320    44    43    32    45
 C     2.17190  -2.06960  -3.04350    45    46    44    49
 C     3.12260  -2.37440  -2.02640    46    42    66    45
 C    -0.11500  -0.96010  -4.14430    47    52    43    48
 C    -0.23730  -2.25780  -3.65590    48    47    49    55
 C     0.93030  -2.83280  -3.07240    49    48    50    45
 C     0.69330  -3.81310  -2.05980    50    67    51    49
 C    -0.61010  -4.07960  -1.64420    51    56    68    50
 C    -1.15720  -0.07650  -4.18730    52    53    64    47
 C    -2.36920  -0.44220  -3.76920    53    52    54    57
 C    -2.57460  -1.67980  -3.27170    54    53    55    74
 C    -1.55210  -2.60440  -3.21280    55    56    54    48
 C    -1.69810  -3.48020  -2.18200    56    51    55    72
 C    -3.19010   0.46220  -3.19500    57    53    87    59
 C    -3.38240   2.37210  -1.95130    58    59    65    85
 C    -2.79380   1.78760  -3.03640    59    58    57    63
 C    -0.73580   4.25200  -0.54150    60    37    61    89
 C    -1.46210   3.79170  -1.62480    61    60    65    62
 C    -0.77430   3.20450  -2.73280    62    63    61    39
 C    -1.48890   2.19270  -3.43940    63    64    59    62
 C    -0.71830   1.20590  -4.03820    64    52    41    63
 C    -2.72880   3.36210  -1.26220    65    58    61    91
 C     2.79820  -3.29370  -1.05180    66    67    46     1
 C     1.63740  -3.98530  -1.06560    67    66    50    70
 C    -0.93180  -4.39640  -0.33570    68    69    51    73
 C     0.02400  -4.48900   0.62570    69    70    71    68
 C     1.31020  -4.29900   0.24040    70    69     6    67
 C    -0.32080  -4.06360   1.86650    71    69    80     7
 C    -2.69100  -3.36330  -1.20220    72    73    75    56
 C    -2.20120  -3.90660  -0.05920    73    72    79    68
 C    -3.57950  -1.55510  -2.31400    74    87    75    54
 C    -3.64030  -2.35960  -1.18630    75    72    74    77
 C    -4.56020  -0.46060   0.02870    76    81    86    77
 C    -4.10120  -1.82870   0.06230    77    75    76    78
 C    -3.53720  -2.38470   1.29420    78    79    83    77
 C    -2.58520  -3.44730   1.19180    79    73    80    78
 C    -1.57930  -3.57570   2.15080    80    98    71    79
 C    -4.44560   0.25900   1.21830    81    82    88    76
 C    -3.89790  -0.25200   2.36080    82    81    95    83
 C    -3.41810  -1.54980   2.46050    83    82    99    78
 C    -4.08340   2.30910   0.11720    84    88    85    91
 C    -4.21900   1.68900  -1.07320    85    84    58    86
 C    -4.48390   0.32270  -1.16440    86    87    85    76
 C    -3.97650  -0.24330  -2.29210    87    86    74    57
 C    -4.21610   1.62740   1.25530    88    84    96    81
 C    -1.16500   4.16830   0.78240    89    90    25    60
 C    -2.38310   3.67690   1.13370    90    89    91    97
 C    -3.17740   3.32830   0.05010    91    84    65    90
 C    -2.26510   0.63780   3.79800    92    95   100    93
 C    -1.26100   1.57090   3.84470    93    92    20    94
 C    -1.30570   2.75460   3.12440    94    93    24    97
 C    -3.33910   0.81750   3.03750    95    92    96    82
 C    -3.47380   1.96860   2.34860    96    95    88    97
 C    -2.49150   2.97030   2.34170    97    96    90    94
 C    -1.44390  -2.70880   3.18540    98    99    80    26
 C    -2.33920  -1.71080   3.38060    99    98   100    83
 C    -1.77380  -0.59940   3.98810   100    92    31    99
