   100
C100-C1-161                                                                     
 C     5.01820   0.30570   0.65780     1     8     2     3
 C     4.53830   1.38030   1.34150     2     4     1    19
 C     5.00830   0.30070  -0.71550     3    25    51     1
 C     4.19060   2.47740   0.67260     4     2     5    50
 C     3.17040   3.23330   1.12840     5     4    75    17
 C     3.49450  -2.80920   1.32710     6    26     7    12
 C     4.41030  -1.99730   0.68820     7     8     6    24
 C     4.63720  -0.80440   1.33940     8     1     7     9
 C     3.86360  -0.38340   2.43170     9    19    11     8
 C     1.71270  -0.53770   3.54160    10    11    14    22
 C     2.86100  -1.15120   2.97330    11     9    12    10
 C     2.74470  -2.41700   2.42820    12    37    11     6
 C    -0.65160  -0.69450   3.79800    13    14    38    23
 C     0.53040  -1.35610   3.61930    14    13    10    36
 C     0.65500   4.18730   1.12240    15    95    76    16
 C     1.02860   3.43090   2.23900    16    15    17    20
 C     2.35010   2.91520   2.24410    17    16     5    18
 C     2.65290   1.67870   2.88720    18    19    17    22
 C     3.77600   0.98130   2.41340    19     9     2    18
 C    -0.04830   2.79350   2.91610    20    16    21    97
 C     0.28890   1.53630   3.55200    21    23    22    20
 C     1.59470   0.93430   3.49630    22    18    21    10
 C    -0.77520   0.68270   3.77730    23   100    21    13
 C     4.42120  -1.99520  -0.73750    24    28    25     7
 C     4.63280  -0.80500  -1.39040    25     3    24    45
 C     2.72710  -3.70210   0.65410    26    27     6    29
 C     2.76310  -3.70920  -0.68950    27    35    26    28
 C     3.52860  -2.81790  -1.36640    28    27    24    43
 C     1.54890  -3.92130   1.31690    29    26    37    33
 C    -2.02690  -3.96350   0.52010    30    31    49    32
 C    -3.14560  -3.26710   0.93030    31    41    30    71
 C    -0.85730  -4.00860   1.33940    32    33    30    40
 C     0.37660  -4.30470   0.69450    33    29    34    32
 C     0.45910  -4.34910  -0.72570    34    48    35    33
 C     1.62080  -3.96130  -1.35060    35    27    34    42
 C     0.41530  -2.66790   3.02500    36    37    40    14
 C     1.56290  -3.11670   2.43010    37    36    12    29
 C    -1.87230  -1.24590   3.49940    38    13    91    39
 C    -2.01020  -2.47270   2.86650    39    38    41    40
 C    -0.84250  -3.19200   2.55020    40    39    36    32
 C    -3.16060  -2.55490   2.09410    41    31    94    39
 C     1.63110  -3.13420  -2.47220    42    43    47    35
 C     2.77370  -2.41690  -2.46710    43    42    44    28
 C     2.81400  -1.14140  -3.00300    44    45    43    53
 C     3.82410  -0.38010  -2.46490    45    54    44    25
 C    -0.63840  -3.29600  -2.57530    46    56    47    48
 C     0.48750  -2.67670  -3.06530    47    42    46    52
 C    -0.65670  -4.09590  -1.43170    48    34    49    46
 C    -1.87260  -3.98780  -0.86680    49    48    73    30
 C     4.19170   2.47810  -0.70370    50    51    59     4
 C     4.52070   1.38200  -1.37860    51    50     3    54
 C     0.41590  -1.34560  -3.61390    52    58    47    53
 C     1.61600  -0.53300  -3.53910    53    44    52    63
 C     3.72740   0.97910  -2.43500    54    45    51    55
 C     2.59450   1.67610  -2.89550    55    54    64    63
 C    -1.86060  -2.76730  -2.72290    56    46    57    73
 C    -2.03940  -1.53160  -3.31490    57    70    56    58
 C    -0.89130  -0.74730  -3.71320    58    52    61    57
 C     3.17270   3.23790  -1.12620    59    50    75    64
 C    -2.30140   1.21980  -3.29080    60    65    69    61
 C    -1.01510   0.69270  -3.68830    61    58    60    62
 C     0.17930   1.52070  -3.53650    62    63    67    61
 C     1.49640   0.92140  -3.48580    63    62    55    53
 C     2.35480   2.92660  -2.24750    64    68    59    55
 C    -2.37360   2.45930  -2.70650    65    66    60    86
 C    -1.26620   3.20500  -2.53240    66    65    79    67
 C     0.01860   2.83170  -2.94190    67    66    68    62
 C     1.07740   3.47310  -2.25340    68    64    67    77
 C    -3.35270   0.39390  -2.91180    69    70    60    83
 C    -3.22540  -0.94780  -2.91440    70    69    57    74
 C    -4.04280  -2.65600   0.05650    71    72    87    31
 C    -3.78230  -2.61980  -1.29570    72    73    74    71
 C    -2.68190  -3.27100  -1.71710    73    72    49    56
 C    -4.09770  -1.46360  -1.95280    74    72    90    70
 C     2.65560   3.81400   0.00600    75    76     5    59
 C     1.45310   4.27150   0.00630    76    75    77    15
 C     0.70310   4.23420  -1.11630    77    80    76    68
 C    -2.70700   3.66050  -0.86670    78    79    86    82
 C    -1.53120   3.98280  -1.42750    79    80    78    66
 C    -0.54620   4.39870  -0.68620    80    79    77    95
 C    -3.79660   2.69020   0.93160    81    98    82    84
 C    -2.86130   3.60180   0.52880    82    81    78    96
 C    -4.32110   0.72540  -1.95470    83    85    90    69
 C    -4.53900   1.90800   0.05190    84    88    85    81
 C    -4.26590   1.92430  -1.30510    85    86    83    84
 C    -3.32000   2.78790  -1.72510    86    85    78    65
 C    -4.63360  -1.59310   0.70430    87    71    94    89
 C    -4.88250   0.74510   0.70310    88    84    92    89
 C    -5.03180  -0.45360   0.01980    89    90    87    88
 C    -4.74010  -0.42410  -1.33520    90    74    83    89
 C    -2.77890  -0.21770   3.35540    91    93    38   100
 C    -4.32820   0.80280   1.96940    92    93    88    98
 C    -3.91510  -0.33800   2.60350    93    94    91    92
 C    -4.08970  -1.53630   1.97010    94    93    87    41
 C    -0.61880   4.33330   0.69140    95    15    96    80
 C    -1.71930   3.84410   1.34420    96    95    82    97
 C    -1.44500   3.05330   2.51630    97    99    96    20
 C    -3.62710   1.99480   2.09470    98    81    92    99
 C    -2.45980   2.12770   2.85450    99   100    98    97
 C    -2.08270   0.96880   3.48840   100    23    99    91
