   100
C100-C1-233                                                                     
 C     4.60720  -1.59050  -0.57920     1     5    26    60
 C     4.04430   2.35970  -0.04020     2     3    64     7
 C     4.63720   1.16120  -0.33940     3     2     4    58
 C     4.78700   0.31530   0.75790     4     5     9     3
 C     4.75920  -1.05220   0.63240     5     1    16     4
 C     2.55170   3.59330   1.10480     6     7    67    10
 C     3.54950   2.68150   1.23370     7     6     8     2
 C     3.55080   1.78630   2.26670     8     7     9    19
 C     4.23890   0.61350   1.99460     9    17     4     8
 C     1.43600   3.69030   1.95020    10     6    13    11
 C     1.32950   2.68380   2.97530    11    19    10    18
 C    -0.94200   3.90000   1.86820    12    13    21   100
 C     0.28600   4.26670   1.38160    13    12    14    10
 C     0.27050   4.58420   0.01760    14    66    97    13
 C     2.79640  -0.61920   3.32370    15    17    22    20
 C     4.15210  -1.62430   1.72190    16    17     5    24
 C     3.87220  -0.57870   2.53960    17    15    16     9
 C    -0.00150   2.25990   3.37630    18    21    35    11
 C     2.40860   1.76420   3.11740    19    20     8    11
 C     2.08010   0.50880   3.61820    20    15    36    19
 C    -1.08500   2.91560   2.82100    21    12    18    37
 C     1.98170  -1.70960   3.34050    22    15    28    23
 C     2.19720  -2.82030   2.52640    23    22    31    24
 C     3.33620  -2.76250   1.65060    24    16    25    23
 C     3.24150  -3.34470   0.37240    25    27    26    24
 C     3.86090  -2.73550  -0.71770    26     1    44    25
 C     2.08280  -4.00160   0.06750    27    25    32    42
 C     0.74470  -1.27880   3.74870    28    29    22    36
 C    -0.42280  -1.94500   3.49080    29    28    40    30
 C    -0.29250  -3.15810   2.70780    30    34    31    29
 C     1.01410  -3.52690   2.20340    31    32    23    30
 C     1.03900  -4.15300   0.95400    32    55    27    31
 C    -2.64310  -2.88110   2.19330    33    57    41    34
 C    -1.45660  -3.58260   2.00420    34    33    54    30
 C    -0.29040   0.92760   3.81710    35    36    18    39
 C     0.80370   0.10170   3.91500    36    20    35    28
 C    -2.34270   2.35380   2.68240    37    91    21    38
 C    -2.65500   1.05820   3.07860    38    37    95    39
 C    -1.57390   0.29290   3.65460    39    35    38    40
 C    -1.61070  -1.15170   3.52480    40    41    29    39
 C    -2.71590  -1.69070   2.90870    41    40    96    33
 C     1.52910  -4.00600  -1.21080    42    47    43    27
 C     2.04050  -3.27460  -2.24700    43    42    44    51
 C     3.25850  -2.68290  -1.96060    44    45    26    43
 C     3.62750  -1.49540  -2.50640    45    46    44    60
 C     2.75400  -0.87630  -3.30270    46    45    61    52
 C     0.20750  -4.23760  -1.10580    47    42    49    55
 C    -1.98300  -3.70560  -1.54670    48    49    68    53
 C    -0.71560  -3.74460  -2.02250    49    48    47    50
 C    -0.29530  -2.81730  -3.01790    50    51    49    70
 C     1.10960  -2.63100  -3.11620    51    52    50    43
 C     1.53290  -1.41080  -3.60530    52    46    72    51
 C    -2.31110  -4.00720  -0.21710    53    56    54    48
 C    -1.33170  -4.21570   0.73620    54    55    53    34
 C    -0.09430  -4.40960   0.24290    55    54    32    47
 C    -3.46060  -3.37480   0.04730    56    53    57    84
 C    -3.65820  -2.83760   1.27670    57    88    56    33
 C     4.40040   0.61520  -1.62640    58    60     3    59
 C     3.49790   1.29010  -2.51860    59    61    63    58
 C     4.43740  -0.78330  -1.68060    60    45     1    58
 C     2.68930   0.48200  -3.32510    61    46    73    59
 C     1.62440   2.91000  -2.71030    62    65    76    63
 C     2.92450   2.53030  -2.20530    63    59    64    62
 C     3.28380   3.05040  -0.94910    64    67     2    63
 C     0.91620   3.84570  -1.97690    65    82    66    62
 C     1.33920   4.30630  -0.75910    66    67    14    65
 C     2.46520   3.87010  -0.24090    67    66    64     6
 C    -2.91150  -2.81150  -2.01570    68    84    48    69
 C    -2.56100  -1.77710  -2.90920    69    68    70    77
 C    -1.22890  -1.75410  -3.41610    70    69    71    50
 C    -0.69720  -0.46930  -3.81740    71    72    74    70
 C     0.68440  -0.37400  -3.89570    72    52    71    73
 C     1.40850   0.80250  -3.73370    73    76    61    72
 C    -1.40030   0.77300  -3.63950    74    78    71    75
 C    -0.63010   2.01630  -3.45310    75    81    76    74
 C     0.80860   2.00050  -3.46480    76    73    62    75
 C    -3.31730  -0.57090  -2.78150    77    78    86    69
 C    -2.73170   0.68160  -3.12600    78    79    77    74
 C    -3.22560   1.79870  -2.43500    79    80    87    78
 C    -2.49950   2.92620  -2.21600    80    79    81    98
 C    -1.23160   3.07660  -2.71740    81    80    82    75
 C    -0.44030   3.94250  -1.98380    82    65    81    97
 C    -4.56640  -1.57580  -0.91360    83    84    86    90
 C    -3.87370  -2.69730  -1.05300    84    83    56    68
 C    -4.65120   0.57460  -1.05610    85    87    86    89
 C    -4.32190  -0.54740  -1.76730    86    83    85    77
 C    -4.12720   1.72360  -1.40260    87    85    92    79
 C    -4.34350  -1.68200   1.41550    88    57    90    96
 C    -4.88470   0.26850   0.27220    89    90    85    94
 C    -4.86340  -1.06880   0.32990    90    89    88    83
 C    -2.97790   2.99580   1.63370    91   100    93    37
 C    -3.87340   2.67400  -0.47250    92    87    98    93
 C    -3.95890   2.37200   0.89740    93    91    94    92
 C    -4.40650   1.10990   1.29920    94    93    89    95
 C    -3.75940   0.45030   2.41080    95    96    38    94
 C    -3.76550  -0.93780   2.40650    96    88    41    95
 C    -0.84840   4.47340  -0.75910    97    99    14    82
 C    -2.91970   3.49120  -1.00660    98    99    92    80
 C    -2.06160   4.19710  -0.23140    99    97    98   100
 C    -2.09700   3.91490   1.11550   100    91    99    12
