   100
C100-C1-272                                                                     
 C     0.20200  -4.43610  -0.79640     1     2     6    60
 C    -0.62910  -4.46250   0.20980     2     1     3     7
 C    -1.90840  -4.11990   0.04540     3     2     4    59
 C    -2.29570  -3.70410   1.28170     4     5     3    16
 C    -3.35090  -2.96480   1.41670     5     4    15    56
 C     1.51770  -4.28240  -0.59040     6     1    76     9
 C    -0.16210  -4.11960   1.46440     7    16     8     2
 C     1.14740  -3.81580   1.72730     8     7    18     9
 C     2.09330  -4.01040   0.66580     9    11     6     8
 C     3.53130  -2.44730   1.68140    10    11   100    17
 C     3.29390  -3.30830   0.63820    11    10     9    12
 C     3.83070  -2.88240  -0.58160    12    77    98    11
 C    -4.15220   0.14630   2.30040    13    14    28    24
 C    -4.29620  -1.13620   1.96640    14    13    15    27
 C    -3.37070  -2.01390   2.39770    15    14     5    21
 C    -1.21210  -3.56970   2.11590    16     7     4    20
 C     2.55700  -2.18270   2.64960    17    37    18    10
 C     1.33280  -2.80120   2.71910    18    17     8    19
 C     0.22220  -2.06810   3.32500    19    20    18    22
 C    -1.09590  -2.51950   3.04320    20    16    21    19
 C    -2.22610  -1.68340   3.16800    21    20    15    23
 C     0.40030  -0.66450   3.72230    22    38    39    19
 C    -2.04410  -0.30910   3.49290    23    24    21    39
 C    -3.05740   0.55200   3.02500    24    13    44    23
 C    -5.05440  -0.52180  -0.15250    25    27    26    47
 C    -4.99360   0.80260   0.21270    26    30    28    25
 C    -4.75070  -1.48850   0.71760    27    25    56    14
 C    -4.53070   1.12910   1.44970    28    13    29    26
 C    -3.72300   2.19780   1.65030    29    28    32    44
 C    -4.59160   1.55500  -0.83310    30    26    48    31
 C    -3.83190   2.72230  -0.69080    31    30    51    32
 C    -3.39030   3.08750   0.63440    32    29    35    31
 C    -0.04820   3.92550   1.88580    33    45    34    93
 C    -1.36460   3.55080   1.98210    34    33    43    35
 C    -2.21040   3.80880   0.83600    35    32    36    34
 C    -1.53650   4.23890  -0.31550    36    94    50    35
 C     2.74920  -0.90910   3.10560    37    17    95    38
 C     1.70800  -0.09740   3.60110    38    37    40    22
 C    -0.74710   0.23920   3.73470    39    23    22    42
 C     1.90020   1.30190   3.43810    40    41    97    38
 C     0.77700   2.15340   3.34100    41    45    40    42
 C    -0.54820   1.67410   3.48360    42    41    43    39
 C    -1.61820   2.45390   2.86450    43    44    34    42
 C    -2.82920   1.86150   2.67370    44    43    24    29
 C     0.96440   3.30980   2.56180    45    33    91    41
 C    -3.44590   0.88850  -2.75220    46    48    49    52
 C    -4.58910  -0.64000  -1.44330    47    48    25    54
 C    -4.38490   0.64430  -1.84990    48    46    47    30
 C    -2.77640   2.05780  -2.75250    49    46    72    51
 C    -1.86680   3.77810  -1.55990    50    51    36    70
 C    -2.96350   3.01520  -1.76190    51    50    49    31
 C    -2.65310  -0.10120  -3.26450    52    46    61    53
 C    -2.76470  -1.43440  -2.87770    53    52    57    54
 C    -3.79660  -1.72600  -1.90730    54    55    47    53
 C    -3.59140  -2.78910  -0.99570    55    59    54    56
 C    -4.09090  -2.59490   0.31790    56    27     5    55
 C    -1.57170  -2.19820  -3.03390    57    53    58    64
 C    -1.48470  -3.34620  -2.17900    58    60    59    57
 C    -2.44830  -3.58450  -1.14860    59    55     3    58
 C    -0.20490  -3.84360  -1.97810    60    69     1    58
 C    -1.48000   0.49270  -3.67740    61    63    52    72
 C     0.92780   0.64200  -3.72910    62    66    63    74
 C    -0.27940  -0.16440  -3.82700    63    61    64    62
 C    -0.32140  -1.58330  -3.55870    64    68    63    57
 C     3.18860   0.68870  -2.89290    65    75    80    66
 C     2.14250  -0.03970  -3.48990    66    65    62    67
 C     2.15890  -1.44850  -3.31070    67    78    66    68
 C     0.94040  -2.19040  -3.31320    68    69    64    67
 C     0.93170  -3.34660  -2.53360    69    60    76    68
 C    -0.66530   3.63130  -2.26370    70    84    71    50
 C    -0.45910   2.60110  -3.16850    71    72    70    74
 C    -1.56640   1.83530  -3.37510    72    71    49    61
 C     1.91200   2.70880  -2.63020    73    75    86    74
 C     0.83130   2.06090  -3.34550    74    71    73    62
 C     3.06500   1.98140  -2.44340    75    65    73    89
 C     1.98820  -3.71860  -1.73460    76    77     6    69
 C     3.10730  -3.03880  -1.73420    77    76    78    12
 C     3.23540  -1.95170  -2.53370    78    77    81    67
 C     4.60290   0.96830  -1.15510    79    80    89    83
 C     4.17860   0.11450  -2.12920    80    81    79    65
 C     4.19260  -1.19660  -1.93400    81    80    78    98
 C     4.57330   1.34070   1.11930    82    87    96    83
 C     4.96790   0.48380   0.10730    83    82    79    99
 C     0.35260   4.13400  -1.52440    84    70    94    86
 C     2.50830   3.85670  -0.49960    85    88    92    86
 C     1.67400   3.73830  -1.66150    86    84    73    85
 C     3.97880   2.56200   0.90730    87    90    82    88
 C     3.63730   3.03930  -0.36470    88    89    85    87
 C     3.93760   2.15920  -1.37050    89    88    79    75
 C     3.15770   2.80020   1.97770    90    91    97    87
 C     2.11790   3.58240   1.86430    91    90    92    45
 C     1.82230   4.19000   0.68430    92    93    91    85
 C     0.51180   4.46560   0.75070    93    94    92    33
 C    -0.21660   4.52550  -0.33860    94    93    36    84
 C     3.87360  -0.44370   2.46220    95    96   100    37
 C     4.02250   0.85930   2.28740    96    95    97    82
 C     3.09200   1.70350   2.78020    97    96    90    40
 C     4.56550  -1.72880  -0.71640    98    12    99    81
 C     4.89600  -0.90550   0.34070    99    98   100    83
 C     4.33460  -1.33370   1.54570   100    95    10    99
