   100
C100-C1-162                                                                     
 C     3.49150   2.26480   1.95610     1    65     4     2
 C     4.31510   1.34240   1.31940     2     1    59     3
 C     4.35890   0.02390   1.89190     3     6     8     2
 C     2.71100   1.95380   3.05580     4     5     7     1
 C     2.70910   0.73760   3.54520     5     4     6    21
 C     3.52320  -0.20050   3.00580     6     5    10     3
 C     1.56650   2.67680   3.09030     7    68     4    19
 C     4.55050  -1.09490   1.05310     8     9    12     3
 C     4.77060  -0.89570  -0.27790     9     8    61    28
 C     2.87010  -1.36450   3.25010    10    11     6    13
 C     3.03730  -2.38080   2.41250    11    10    12    14
 C     3.85360  -2.27330   1.33740    12    11    26     8
 C     1.65260  -1.14540   3.84490    13    21    10    16
 C     1.99710  -3.21920   2.16620    14    11    31    15
 C     0.76390  -3.09150   2.79550    15    39    14    16
 C     0.56090  -1.96080   3.67230    16    13    24    15
 C    -0.61950   3.72340   2.00180    17    81    67    18
 C    -0.85140   2.77390   3.02130    18    17    19    96
 C     0.31800   2.20440   3.57630    19    18    20     7
 C     0.29380   0.87030   4.04980    20    21    19    23
 C     1.52880   0.20320   4.03130    21    13     5    20
 C    -2.12530   0.71180   3.49480    22    99    23    96
 C    -0.89360   0.08950   3.96930    23    20    22    24
 C    -0.71700  -1.35310   3.81480    24    25    16    23
 C    -1.74890  -2.06140   3.25400    25   100    24    38
 C     3.31870  -3.11220   0.37240    26    27    31    12
 C     3.48060  -2.88590  -0.96300    27    26    28    34
 C     4.29640  -1.78410  -1.25370    28    29    27     9
 C     4.11600  -1.06060  -2.37370    29    28    30    44
 C     3.10980  -1.38430  -3.21390    30    29    45    35
 C     2.16920  -3.68740   0.87390    31    26    32    14
 C     1.10330  -4.08440   0.08700    32    31    40    33
 C     1.19150  -3.81500  -1.33330    33    34    37    32
 C     2.39400  -3.22180  -1.82440    34    35    27    33
 C     2.25880  -2.41790  -2.95310    35    30    54    34
 C    -1.21490  -3.81510  -1.37320    36    37    41    55
 C    -0.04450  -3.58380  -2.04710    37    36    53    33
 C    -1.55260  -3.18490   2.45680    38    91    39    25
 C    -0.29850  -3.66040   2.10410    39    38    15    40
 C    -0.13650  -4.16070   0.75640    40    41    32    39
 C    -1.26920  -4.12420  -0.03040    41    92    36    40
 C     3.68060   1.19290  -2.73940    42    44    62    43
 C     2.69300   0.86080  -3.60780    43    45    52    42
 C     4.40770   0.24340  -2.11690    44    42    61    29
 C     2.40270  -0.42070  -3.84380    45    43    46    30
 C     1.12370  -0.81260  -4.02370    46    45    54    50
 C    -2.27010   0.44230  -3.51580    47    48    49    75
 C    -3.43900  -0.07130  -2.92380    48    84    58    47
 C    -1.22990  -0.47820  -3.82960    49    50    47    57
 C     0.04750   0.07330  -4.07780    50    46    49    51
 C     0.35050   1.46560  -3.81300    51    52    76    50
 C     1.69110   1.77070  -3.54040    52    43    69    51
 C    -0.14260  -2.63420  -3.12260    53    54    37    57
 C     1.03570  -2.09630  -3.51790    54    53    46    35
 C    -2.41770  -3.22780  -1.70700    55    36    56    87
 C    -2.51130  -2.25610  -2.68790    56    58    55    57
 C    -1.34510  -1.87830  -3.38190    57    56    53    49
 C    -3.54970  -1.37890  -2.50330    58    56    48    89
 C     4.47460   1.54410  -0.08000    59    61     2    60
 C     3.71080   2.57590  -0.77040    60    62    64    59
 C     4.77950   0.38940  -0.81680    61    44     9    59
 C     3.31970   2.32460  -2.08700    62    42    69    60
 C     1.61380   3.92520  -0.67600    63    66    71    64
 C     2.83340   3.42900  -0.07420    64    65    60    63
 C     2.80680   3.26130   1.30830    65    68     1    64
 C     0.56910   4.24710   0.17570    66    74    67    63
 C     0.61800   4.02770   1.51850    67    68    66    17
 C     1.69550   3.53730   2.05610    68    67     7    65
 C     2.09920   2.72990  -2.62940    69    71    52    62
 C    -0.19610   3.38460  -2.34710    70    73    71    76
 C     1.19340   3.50840  -1.97730    71    69    63    70
 C    -2.43550   3.39940  -1.44960    72    73    77    79
 C    -1.15100   3.83760  -1.41000    73    72    74    70
 C    -0.73700   4.21870  -0.15680    74    66    73    81
 C    -1.96310   1.83330  -3.23090    75    77    76    47
 C    -0.62880   2.32660  -3.27660    76    51    75    70
 C    -2.86330   2.47320  -2.36480    77    85    72    75
 C    -4.19590   2.38330  -0.58720    78    79    82    85
 C    -3.23830   3.27620  -0.30730    79    78    80    72
 C    -2.72180   3.41670   0.97510    80    81    79    95
 C    -1.49150   3.95620   0.99200    81    80    17    74
 C    -4.66480   1.57640   0.38590    82    78    86    97
 C    -4.86710  -0.15590  -1.19740    83    89    84    86
 C    -4.29550   0.64890  -2.13970    84    85    83    48
 C    -3.98640   1.90760  -1.85040    85    84    77    78
 C    -5.03590   0.30540   0.08040    86    82    93    83
 C    -3.23790  -3.22790  -0.58540    87    92    88    55
 C    -4.23350  -2.29830  -0.36280    88    89    87    94
 C    -4.42300  -1.41990  -1.40980    89    83    88    58
 C    -3.52600  -2.29430   1.91640    90    91    94   100
 C    -2.63910  -3.28530   1.65810    91    92    38    90
 C    -2.49580  -3.75510   0.41580    92    91    87    41
 C    -4.74040  -0.48470   1.14620    93    86    94    98
 C    -4.39300  -1.80320   0.96330    94    93    90    88
 C    -3.08390   2.48920   2.00110    95    97    80    96
 C    -2.09940   2.08400   2.98790    96    18    95    22
 C    -4.08340   1.59610   1.63700    97    98    82    95
 C    -4.13470   0.31940   2.12510    98    97    99    93
 C    -3.17360  -0.13950   3.01220    99   100    98    22
 C    -2.94810  -1.49920   2.90410   100    25    99    90
