   100
C100-C1-131                                                                     
 C    -0.14650  -4.16010  -1.43610     1     7     2    70
 C     1.04860  -3.69380  -1.93110     2     1    68    11
 C     2.13330  -1.80150  -3.04110     3    11     4    13
 C     3.27210  -2.14630  -2.26460     4     5    69     3
 C     4.25100  -1.26960  -1.91690     5     6     4    17
 C     4.16850  -0.00690  -2.32160     6     5    18    14
 C    -1.36060  -3.75920  -1.85850     7     1     9    76
 C    -2.67910  -2.09590  -2.72180     8    22     9    77
 C    -1.47180  -2.74230  -2.79340     9     8     7    10
 C    -0.30530  -2.07260  -3.28840    10     9    11    12
 C     0.98170  -2.61260  -2.90570    11     3    10     2
 C    -0.43230  -0.65540  -3.66900    12    24    23    10
 C     2.01170  -0.42650  -3.44030    13    14     3    24
 C     3.07870   0.40120  -3.04500    14    28     6    13
 C     5.10930  -0.55670   0.14520    15    17    16    31
 C     5.07430   0.74770  -0.27980    16    18    34    15
 C     4.74910  -1.56550  -0.67790    17    41    15     5
 C     4.61700   1.00790  -1.53600    18    19     6    16
 C     3.85990   2.08880  -1.78480    19    18    20    28
 C     3.54850   3.00860  -0.79720    20    21    19    33
 C     2.41310   3.69880  -1.05120    21    20    63    29
 C    -2.80410  -0.80100  -3.11150    22     8    95    23
 C    -1.72020  -0.01710  -3.54630    23    22    98    12
 C     0.73270   0.18830  -3.68540    24    12    13    26
 C    -0.71430   2.21700  -3.21990    25    98    26    99
 C     0.58800   1.63530  -3.45900    26    27    25    24
 C     1.72800   2.34470  -2.95690    27    28    29    26
 C     2.92630   1.73040  -2.77410    28    27    14    19
 C     1.55650   3.43480  -2.13020    29   100    27    21
 C     3.46540   1.00030   2.64880    30    32    35    37
 C     4.66030  -0.59190   1.44720    31    32    15    39
 C     4.43580   0.71510   1.77930    32    30    31    34
 C     3.90200   2.72500   0.55020    33    34    20    36
 C     4.66880   1.57070   0.73350    34    16    32    33
 C     2.76010   2.15690   2.57900    35    30    57    36
 C     2.94170   3.09000   1.55500    36    35    64    33
 C     2.69450   0.01800   3.21020    37    30    43    38
 C     2.84990  -1.32410   2.91740    38    37    46    39
 C     3.89110  -1.64660   1.96820    39    31    40    38
 C     3.68150  -2.73600   1.10290    40    42    41    39
 C     4.08210  -2.64310  -0.23540    41    17    69    40
 C     2.57220  -3.48650   1.31330    42    40    67    47
 C     1.49760   0.58600   3.57510    43    37    57    44
 C     0.31560  -0.12500   3.75450    44    43    54    45
 C     0.38610  -1.54800   3.51440    45    44    49    46
 C     1.66980  -2.09490   3.08430    46    47    38    45
 C     1.62420  -3.22840   2.29590    47    51    46    42
 C    -2.07230  -1.50790   3.20020    48    52    49    53
 C    -0.84580  -2.23900   3.19160    49    48    50    45
 C    -0.79460  -3.43080   2.37490    50    51    73    49
 C     0.45810  -3.82690   1.94830    51    47    66    50
 C    -3.14490  -2.02300   2.42370    52    72    83    48
 C    -2.09680  -0.09220   3.44300    53    55    54    48
 C    -0.89300   0.63970   3.67140    54    53    44    60
 C    -3.19030   0.61850   2.91070    55    61    82    53
 C     0.42970   2.67820   3.00610    56    57    62    60
 C     1.55010   1.92530   3.20880    57    56    35    43
 C    -1.81350   3.66910   1.78290    58    65    59    86
 C    -1.98490   2.65490   2.71250    59    61    58    60
 C    -0.83830   2.06520   3.30350    60    59    56    54
 C    -3.13290   1.92790   2.53370    61    55    59    89
 C     0.59520   3.73110   2.04910    62    65    56    64
 C     1.63470   4.21800  -0.05680    63    90    21    64
 C     1.80860   3.86430   1.28730    64    36    63    62
 C    -0.58370   4.14110   1.45610    65    58    94    62
 C     0.67410  -4.39800   0.71900    66    70    67    51
 C     1.90440  -4.11990   0.28160    67    66    42    68
 C     2.15740  -3.82650  -1.06230    68    69    67     2
 C     3.25020  -3.08740  -1.26110    69    68     4    41
 C    -0.32660  -4.53490  -0.12150    70    66    71     1
 C    -1.58600  -4.32140   0.26300    71    70    76    73
 C    -3.02830  -3.10050   1.58840    72    73    52    74
 C    -1.87620  -3.80410   1.53330    73    72    71    50
 C    -3.85880  -2.88710   0.48450    74    78    75    72
 C    -3.44650  -3.26740  -0.77410    75    76    77    74
 C    -2.30190  -3.96840  -0.85050    76    75    71     7
 C    -3.67480  -2.36760  -1.77000    77    75    80     8
 C    -4.55520  -1.72720   0.68870    78    74    83    79
 C    -4.93250  -0.85420  -0.33650    79    78    80    85
 C    -4.40580  -1.23450  -1.57800    80    77    95    79
 C    -4.65170   0.93290   1.22810    81    82    89    85
 C    -4.18280   0.04560   2.15510    82    83    81    55
 C    -4.14790  -1.24780   1.90610    83    82    52    78
 C    -4.59120   1.41600  -1.05300    84    87    96    85
 C    -5.00380   0.52250  -0.06510    85    84    81    79
 C    -2.65980   3.80670   0.67660    86    88    93    58
 C    -4.00690   2.62430  -0.78880    87    84    88    91
 C    -3.75590   3.03210   0.50370    88    86    89    87
 C    -4.03490   2.12760   1.48530    89    88    81    61
 C     0.41860   4.45710  -0.59520    90    94    63   100
 C    -3.09030   2.90130  -1.80840    91    92    97    87
 C    -2.00340   3.69120  -1.65300    92    91    93    99
 C    -1.86450   4.22090  -0.36200    93    94    86    92
 C    -0.66330   4.51400   0.14330    94    90    93    65
 C    -3.91330  -0.31520  -2.45590    95    96    80    22
 C    -4.01450   0.97700  -2.21580    96    95    97    84
 C    -3.03920   1.82110  -2.65270    97    96    91    98
 C    -1.86220   1.39320  -3.31720    98    25    97    23
 C    -0.83060   3.41590  -2.39890    99   100    92    25
 C     0.33790   3.91760  -1.86000   100    29    90    99
