   100
C100-C1-47                                                                      
 C     3.91330  -0.62040  -2.32100     1    68     2     4
 C     4.73360  -0.64400  -1.18290     2     3    48     1
 C     5.11990   0.49060  -0.50910     3     6    21     2
 C     3.41310   0.66490  -2.76640     4     5     8     1
 C     3.83780   1.76000  -2.02270     5     6    11     4
 C     4.66240   1.68480  -0.93160     6     3    22     5
 C     1.49210  -0.38350  -3.69360     7     8    71    18
 C     2.13350   0.78940  -3.41220     8     7     9     4
 C     1.27310   1.92880  -3.29300     9    10     8    13
 C     1.79730   2.95860  -2.46850    10    12    11     9
 C     3.01780   2.84400  -1.84940    11     5    10    23
 C     0.92110   3.75380  -1.80850    12   100    10    25
 C    -0.18720   1.80980  -3.46170    13    99    14     9
 C    -0.79660   0.53230  -3.71710    14    18    13    94
 C    -1.48970  -3.38840  -2.30700    15    90    72    16
 C    -1.48890  -2.21430  -3.13120    16    17    93    15
 C    -0.23250  -1.80660  -3.57870    17    70    18    16
 C     0.10610  -0.50360  -3.83340    18    17    14     7
 C     4.72960   1.16900   1.70540    19    20    29    21
 C     4.24420   2.36070   1.28730    20    19    22    43
 C     5.21220   0.22840   0.82590    21    28     3    19
 C     4.26940   2.64550  -0.04000    22    23    20     6
 C     3.27400   3.36410  -0.57200    23    22    24    11
 C     2.24610   3.89100   0.18790    24    25    23    42
 C     1.13530   4.17070  -0.49190    25    24    45    12
 C     4.14850  -1.45560   2.03390    26    49    28    27
 C     3.61050  -0.51250   2.86590    27    29    35    26
 C     4.90500  -1.08020   0.97600    28    21    26    48
 C     3.87080   0.77960   2.69260    29    27    19    30
 C     2.85720   1.68120   2.88650    30    29    43    33
 C    -1.10990   0.31380   3.52760    31    63    60    32
 C    -0.86140   1.74120   3.20950    32    40    37    31
 C     1.56600   1.34150   3.34050    33    30    37    34
 C     1.31910  -0.05250   3.59370    34    35    60    33
 C     2.38570  -0.91900   3.29320    35    27    56    34
 C     0.77390   3.34200   2.12250    36    44    42    37
 C     0.48830   2.22300   3.03330    37    33    32    36
 C    -2.60320   3.73180   0.65960    38    83    88    39
 C    -1.64840   3.53960   1.69250    39    44    38    40
 C    -1.93870   2.49340   2.61890    40    41    39    32
 C    -3.20260   1.91280   2.48730    41    62    84    40
 C     2.09090   3.48600   1.55220    42    43    24    36
 C     3.11760   2.71120   2.01810    43    42    30    20
 C    -0.32260   3.88440   1.41490    44    39    45    36
 C    -0.06190   4.28290   0.09080    45    25    86    44
 C     3.77840  -2.75090  -0.37410    46    48    67    47
 C     3.10190  -3.23700   0.81460    47    49    51    46
 C     4.63590  -1.66960  -0.23780    48    28    46     2
 C     3.26800  -2.47410   1.96270    49    26    47    56
 C     0.87240  -3.76360   1.74760    50    53    57    51
 C     1.89640  -3.93180   0.74350    51    52    47    50
 C     1.43970  -4.23010  -0.53420    52    55    66    51
 C    -0.41110  -4.08020   1.40180    53    59    50    54
 C    -0.77630  -4.46080   0.13190    54    55    89    53
 C     0.12430  -4.45320  -0.81520    55    54    72    52
 C     2.20440  -2.19350   2.81920    56    57    35    49
 C     0.97810  -2.75810   2.75000    57    56    50    61
 C    -1.44800  -2.45960   2.88380    58    59    64    61
 C    -1.50660  -3.52120   1.96710    59    53    74    58
 C     0.00860  -0.59600   3.61260    60    34    31    61
 C    -0.16190  -2.00870   3.25200    61    58    57    60
 C    -3.43330   0.60070   2.81610    62    41    79    63
 C    -2.41240  -0.24320   3.26890    63    62    64    31
 C    -2.57730  -1.62410   2.93880    64    58    65    63
 C    -3.67270  -1.95980   2.09790    65    80    73    64
 C     1.99930  -3.66610  -1.64920    66    52    69    67
 C     3.12510  -2.86440  -1.62280    67    66    46    68
 C     3.15890  -1.77380  -2.56670    68    71     1    67
 C     0.95150  -3.49370  -2.51780    69    70    72    66
 C     0.94670  -2.44080  -3.30390    70    69    71    17
 C     2.00250  -1.60500  -3.32740    71    70     7    68
 C    -0.22010  -3.94170  -2.03020    72    69    55    15
 C    -3.57190  -2.90770   1.12350    73    74    65    76
 C    -2.52690  -3.66500   1.06470    74    73    89    59
 C    -4.88040  -1.38150   0.33430    75    77    76    80
 C    -4.19070  -2.47610  -0.02850    76    75    73    91
 C    -5.07810  -0.38330  -0.53480    77    75    81    95
 C    -4.90550   1.17950   1.22670    78    79    84    81
 C    -4.52390   0.18750   2.05660    79    80    78    62
 C    -4.57890  -1.07480   1.65300    80    79    65    75
 C    -5.17130   0.89450  -0.10770    81    77    85    78
 C    -4.02220   2.79690  -0.75160    82    85    87    83
 C    -3.78490   3.10580   0.57570    83    84    38    82
 C    -4.14810   2.25650   1.52750    84    83    78    41
 C    -4.64170   1.66460  -1.08400    85    82    81    96
 C    -0.97980   4.16500  -0.89500    86    88    45   100
 C    -2.98710   3.22130  -1.49980    87    82    88    98
 C    -2.21450   3.93000  -0.63280    88    86    87    38
 C    -2.05200  -4.10290  -0.12160    89    54    74    90
 C    -2.49740  -3.54340  -1.34420    90    91    15    89
 C    -3.57510  -2.65150  -1.29370    91    90    76    92
 C    -3.61550  -1.50790  -2.16750    92    95    91    93
 C    -2.50640  -1.21990  -3.04420    93    16    92    94
 C    -2.16330   0.18680  -3.36820    94    97    14    93
 C    -4.39590  -0.42800  -1.75120    95    96    77    92
 C    -4.10940   0.87730  -2.09350    96    95    85    97
 C    -2.97950   1.23500  -2.84810    97    96    94    98
 C    -2.40510   2.51420  -2.58440    98    99    87    97
 C    -1.04080   2.77420  -2.86020    99   100    98    13
 C    -0.40020   3.69620  -2.03150   100    12    86    99
