   100
C100-C1-86                                                                      
 C     2.36450  -1.19890  -3.34770     1     2    11    18
 C     2.49190  -2.39550  -2.72490     2     1     3     6
 C     3.54930  -2.43730  -1.80660     3    61    17     2
 C     0.23520  -4.34680  -0.75420     4     5     7    68
 C     1.35220  -3.97810  -1.42320     5     4    62     6
 C     1.30930  -3.15030  -2.54080     6     5     2     9
 C    -1.03970  -4.02920  -1.16940     7     4    15     8
 C    -1.18510  -3.18650  -2.33610     8    13     9     7
 C     0.00610  -2.69030  -2.97740     9     8    10     6
 C    -0.06540  -1.38820  -3.60230    10    11    30     9
 C     1.13480  -0.71420  -3.75030    11    22     1    10
 C    -3.40920  -2.67570  -1.50420    12    95    14    13
 C    -2.40240  -2.46650  -2.47550    13    12     8    31
 C    -3.15630  -3.33920  -0.32440    14    15    12   100
 C    -2.00260  -3.98980  -0.13340    15    14    16     7
 C    -1.56880  -3.99140   1.19100    16    67    98    15
 C     4.35320  -1.34570  -1.50470    17    19    51     3
 C     3.21810  -0.14010  -3.10090    18    20     1    19
 C     4.24100  -0.13940  -2.14450    19    17    18    33
 C     2.50890   0.96580  -3.40390    20    21    18    22
 C     2.79360   2.11070  -2.81190    21    20    32    28
 C     1.23150   0.65620  -3.77320    22    20    11    26
 C    -2.17720   1.70280  -3.06640    23    24    25    47
 C    -3.36950   1.04260  -2.76290    24    91    29    23
 C    -1.12460   0.90210  -3.59110    25    26    23    30
 C     0.15160   1.50770  -3.60280    26    22    25    27
 C     0.44180   2.75900  -2.94680    27    28    48    26
 C     1.76910   2.98500  -2.56900    28    41    21    27
 C    -3.50040  -0.33220  -2.79940    29    96    24    31
 C    -1.25000  -0.58010  -3.60880    30    31    10    25
 C    -2.44000  -1.18200  -3.12770    31    29    30    13
 C     3.78520   2.18090  -1.87260    32    35    21    33
 C     4.52070   1.05750  -1.44620    33    32    19    34
 C     4.83940   0.98530  -0.05170    34    37    50    33
 C     3.37650   3.18940  -1.05530    35    36    32    41
 C     3.68630   3.13380   0.24080    36    35    39    37
 C     4.38510   2.06200   0.73250    37    36    52    34
 C     0.57530   3.95850   1.68240    38    46    40    57
 C     2.78040   3.58300   1.15190    39    36    40    55
 C     1.57710   4.14490   0.77260    40    38    39    43
 C     2.14580   3.68560  -1.45680    41    28    43    35
 C    -0.17250   4.13420  -0.98820    42    45    43    48
 C     1.19670   4.20060  -0.60020    43    41    42    40
 C    -2.40920   3.78860  -0.16090    44    45    49    86
 C    -1.13460   4.18540   0.04600    45    44    46    42
 C    -0.71740   4.02430   1.35680    46    38    45    88
 C    -1.89270   2.93440  -2.35430    47    49    48    23
 C    -0.56940   3.41780  -2.20910    48    27    47    42
 C    -2.82470   3.26300  -1.36170    49    92    44    47
 C     4.86140  -0.27910   0.59490    50    51    54    34
 C     4.65850  -1.42030  -0.15240    51    50    60    17
 C     3.89580   1.89140   2.00310    52    53    55    37
 C     3.83320   0.67930   2.54490    53    52    54    70
 C     4.33820  -0.39450   1.89510    54    53    58    50
 C     2.90130   2.77720   2.26710    55    52    39    56
 C     1.81620   2.43690   3.06630    56    57    55    69
 C     0.68040   3.10720   2.78030    57    56    75    38
 C     3.64340  -1.49450   2.36290    58    59    54    71
 C     3.49500  -2.63500   1.63450    59    58    64    60
 C     4.05140  -2.55870   0.34920    60    61    51    59
 C     3.44900  -3.19240  -0.69270    61    62     3    60
 C     2.38700  -3.95360  -0.50150    62    61    65     5
 C     1.33700  -2.94860   2.77390    63    66    73    64
 C     2.35140  -3.40790   1.85340    64    59    65    63
 C     1.87970  -4.13830   0.74850    65    68    62    64
 C     0.05390  -3.39340   2.56660    66    67    63    81
 C    -0.29150  -4.18220   1.50270    67    68    16    66
 C     0.59460  -4.46770   0.57510    68    67    65     4
 C     1.67570   1.13520   3.60150    69    70    56    74
 C     2.75220   0.30310   3.32170    70    71    53    69
 C     2.63570  -1.04670   3.22410    71    70    73    58
 C     0.24430  -0.89460   3.76370    72    80    74    73
 C     1.42860  -1.69250   3.43250    73    71    63    72
 C     0.37190   0.54520   3.82970    74    76    72    69
 C    -0.56030   2.62300   3.07830    75    57    88    76
 C    -0.80870   1.33920   3.59700    76    75    78    74
 C    -3.08430   1.61180   2.62210    77    82    87    78
 C    -2.11570   0.79730   3.33910    78    76    79    77
 C    -2.25430  -0.63840   3.30350    79    78    80    84
 C    -1.06550  -1.43320   3.50570    80    81    72    79
 C    -1.08230  -2.70780   2.93190    81    66    98    80
 C    -4.15000   0.99920   1.96900    82    83    89    77
 C    -4.29500  -0.36220   1.94140    83    82    84    97
 C    -3.37280  -1.20560   2.56140    84    83    99    79
 C    -4.20530   2.56850   0.22140    85    86    89    92
 C    -3.22550   3.24580   0.83010    86    85    87    44
 C    -2.69010   2.84710   2.05180    87    88    86    77
 C    -1.44950   3.29130   2.28010    88    87    75    46
 C    -4.75010   1.48860   0.81350    89    85    93    82
 C    -4.96620   0.47400  -1.29130    90    91    96    93
 C    -4.29420   1.51180  -1.85160    91    92    90    24
 C    -3.97060   2.58210  -1.12680    92    91    49    85
 C    -5.20680   0.45470   0.06970    93    97    89    90
 C    -4.66690  -1.81200   0.12040    94   100    97    95
 C    -4.40670  -1.79440  -1.22930    95    96    12    94
 C    -4.50210  -0.64760  -1.90270    96    95    90    29
 C    -4.98610  -0.67990   0.77160    97    94    93    83
 C    -2.11940  -3.16230   2.14490    98    99    16    81
 C    -3.25200  -2.47180   1.93820    99    98   100    84
 C    -3.85560  -2.70230   0.69810   100    94    14    99
