   100
C100-C1-398                                                                     
 C    -2.24020   4.00230  -0.20900     1     6     2    66
 C    -2.72520   3.43360  -1.36500     2     1     3    10
 C    -3.77920   2.53820  -1.14030     3     4    65     2
 C    -3.96720   1.45010  -1.92860     4     5     3    28
 C    -3.13020   1.24810  -2.94600     5     4    14    11
 C    -0.94790   4.40380  -0.11260     6     1     8    74
 C     1.26040   4.26290  -0.73920     7    21     8    75
 C    -0.04370   4.27910  -1.15880     8     7     6     9
 C    -0.42900   3.59100  -2.34950     9    10     8    23
 C    -1.79980   3.19820  -2.42450    10    11     2     9
 C    -2.06950   2.08000  -3.19180    11     5    25    10
 C    -2.58510  -2.20360  -2.79540    12    13    29    20
 C    -3.38330  -1.10940  -2.68910    13    12    14    27
 C    -2.83950  -0.00550  -3.33220    14     5    15    13
 C    -1.57200   0.02780  -3.88890    15    19    25    14
 C     2.39930   0.67400  -3.39120    16    17    90    26
 C     1.12620   0.47420  -3.85430    17    16    24    18
 C     0.66310  -0.89980  -3.88010    18    19    17    41
 C    -0.74180  -1.06430  -3.91210    19    20    15    18
 C    -1.31990  -2.19740  -3.39950    20    39    19    12
 C     2.24890   3.65350  -1.46380    21     7    22    98
 C     1.93580   2.91320  -2.59520    22    26    21    23
 C     0.60130   2.82480  -3.05180    23    22    24     9
 C     0.23560   1.60710  -3.74320    24    25    17    23
 C    -1.09960   1.31740  -3.79130    25    24    11    15
 C     2.81200   1.85990  -2.80390    26   100    22    16
 C    -4.20350  -0.94320  -1.53770    27    28    13    31
 C    -4.48390   0.38910  -1.21820    28    43     4    27
 C    -2.60240  -3.17660  -1.84740    29    12    34    30
 C    -3.32410  -3.07110  -0.64340    30    29    37    31
 C    -4.13520  -1.89540  -0.46240    31    27    30    32
 C    -4.29990  -1.38450   0.87750    32    33    42    31
 C    -3.56820  -2.04480   1.87260    33    38    44    32
 C    -1.39500  -3.82090  -1.96440    34    35    29    39
 C    -0.86480  -4.45230  -0.93610    35    34    97    36
 C    -1.49870  -4.40060   0.27330    36    35    61    37
 C    -2.69080  -3.72020   0.45220    37    38    36    30
 C    -2.79700  -3.13930   1.68760    38    33    37    60
 C    -0.56850  -3.19160  -2.87050    39    20    34    40
 C     0.83130  -3.15100  -2.78420    40    39    96    41
 C     1.48540  -1.98370  -3.31920    41    91    40    18
 C    -4.54340  -0.00690   1.12180    42    43    46    32
 C    -4.65930   0.85590   0.05510    43    28    42    65
 C    -2.98820  -1.37670   2.92860    44    45    47    33
 C    -3.16570  -0.08750   3.08690    45    44    46    52
 C    -3.97260   0.60190   2.24580    46    45    63    42
 C    -1.81870  -1.95270   3.32240    47    44    60    50
 C     2.49440   1.35160   3.14490    48    71    85    53
 C     0.20430   1.10110   3.82440    49    51    53    68
 C    -0.70610  -1.22400   3.81200    50    47    57    51
 C    -0.89430   0.19450   3.92710    51    52    49    50
 C    -2.16080   0.69280   3.58680    52    67    45    51
 C     1.51060   0.51350   3.68720    53    48    49    58
 C     2.92080  -1.35150   2.86630    54    59    84    58
 C     1.77900  -3.38060   2.23010    55    59    56    88
 C     0.61830  -3.08170   2.92390    56    55    62    57
 C     0.57980  -1.79960   3.60500    57    50    58    56
 C     1.72480  -0.91550   3.56400    58    57    53    54
 C     2.86240  -2.57320   2.20830    59    55    81    54
 C    -1.73770  -3.11080   2.60790    60    62    47    38
 C    -0.48550  -4.42780   1.21200    61    86    36    62
 C    -0.54290  -3.70820   2.39950    62    60    61    56
 C    -3.53460   1.89790   2.29370    63    64    46    67
 C    -3.67570   2.73290   1.22770    64    66    63    65
 C    -4.24640   2.18700   0.10860    65    64     3    43
 C    -2.68090   3.64420   1.05480    66    64    70     1
 C    -2.40460   1.94610   3.11620    67    52    69    63
 C    -0.05920   2.47010   3.33060    68    72    69    49
 C    -1.38560   2.84370   2.95720    69    67    70    68
 C    -1.59760   3.74170   1.90740    70    74    66    69
 C     2.23800   2.62240   2.67470    71    72    77    48
 C     0.98800   3.20170   2.69380    72    71    68    73
 C     0.71290   4.10420   1.61770    73    74    75    72
 C    -0.56570   4.28800   1.22620    74    73    70     6
 C     1.64310   4.22600   0.60000    75    78    73     7
 C     4.00890   1.83930   1.55310    76    77    85    80
 C     3.17550   2.89210   1.70120    77    78    76    71
 C     2.85770   3.65890   0.64510    78    75    77    98
 C     4.80290   0.18530   0.14630    79    80    92    83
 C     4.56540   1.52760   0.31200    80    79    76    99
 C     3.51400  -2.82650   1.01250    81    82    87    59
 C     4.27720  -1.91440   0.46170    82    81    83    93
 C     4.51300  -0.74790   1.11970    83    82    79    84
 C     3.84560  -0.43530   2.31420    84    85    83    54
 C     3.62010   0.88950   2.48400    85    84    48    76
 C     0.68090  -4.56350   0.52950    86    88    61    97
 C     2.79210  -3.66850   0.23700    87    88    81    95
 C     1.79630  -4.09810   1.04540    88    86    87    55
 C     4.11600   0.24190  -2.08550    89    92   100    90
 C     3.20090  -0.34900  -2.92340    90    89    16    91
 C     2.78210  -1.68290  -2.80950    91    90    41    94
 C     4.61630  -0.45090  -1.06100    92    89    93    79
 C     4.25810  -1.74260  -0.89860    93    92    82    94
 C     3.36750  -2.44520  -1.74140    94    95    93    91
 C     2.64100  -3.50690  -1.16840    95    96    94    87
 C     1.40050  -3.89900  -1.70450    96    95    97    40
 C     0.48550  -4.51260  -0.82100    97    35    86    96
 C     3.28930   3.32610  -0.60350    98    78    99    21
 C     4.13820   2.27120  -0.80980    99    98   100    80
 C     3.88490   1.57660  -1.97830   100    89    99    26
