   100
C100-C1-143                                                                     
 C    -1.52950   3.69800   1.84110     1    18    52     2
 C    -2.05540   2.65780   2.62680     2     1     3    13
 C    -3.30250   2.11960   2.19970     3     4    75     2
 C    -3.64810   0.79470   2.53070     4     3     5     7
 C    -4.54050   0.11220   1.66250     5     6    43     4
 C    -4.55130  -1.22670   1.51210     6     9     5    22
 C    -2.69180  -0.00580   3.24000     7     8    14     4
 C    -2.77460  -1.39450   3.03800     8     9    28     7
 C    -3.69980  -1.98450   2.21530     9     6    23     8
 C    -0.33490  -0.46810   3.77940    10    11    27    14
 C     0.94310   0.01210   3.77480    11    10    89    15
 C     0.29820   2.28500   3.28780    12    15    16    13
 C    -1.09150   1.88220   3.34960    13     2    12    14
 C    -1.41720   0.49400   3.62810    14     7    13    10
 C     1.25730   1.34200   3.55770    15    12    99    11
 C     0.78170   3.35890   2.47750    16    18    12    17
 C     2.12120   3.36180   1.93360    17    98    19    16
 C    -0.20090   4.00380   1.76320    18     1    58    16
 C     2.26230   3.88130   0.63770    19    57    79    17
 C    -4.20660  -2.60460  -0.34190    20    22    21    36
 C    -3.44850  -3.43440   0.41740    21    25    23    20
 C    -4.80510  -1.53030   0.19110    22    20    35     6
 C    -3.16910  -3.11650   1.70330    23     9    21    29
 C    -0.22200  -4.30380  -0.66750    24    26    96    38
 C    -2.45290  -3.94280  -0.32750    25    21    26    37
 C    -1.23130  -4.28990   0.21760    26    24    25    31
 C    -0.42760  -1.85990   3.42810    27    28    10    32
 C    -1.68650  -2.25570   3.07890    28    27    29     8
 C    -1.92580  -3.31140   2.22280    29    23    28    31
 C     0.45590  -3.67530   1.95050    30    31    95    32
 C    -0.89240  -3.95150   1.56530    31    29    30    26
 C     0.70630  -2.64050   2.94460    32    90    30    27
 C    -4.38040  -0.21750  -1.79510    33    45    35    34
 C    -3.63670  -1.32350  -2.33390    34    36    33    41
 C    -4.93400  -0.38070  -0.49910    35    22    43    33
 C    -3.62240  -2.49650  -1.58150    36    37    20    34
 C    -2.56390  -3.35830  -1.60230    37    36    39    25
 C    -0.34120  -3.75590  -1.95470    38    73    39    24
 C    -1.47380  -3.15530  -2.40960    39    38    37    40
 C    -1.35120  -1.99110  -3.22020    40    39    41    72
 C    -2.47210  -1.09100  -3.15100    41    42    40    34
 C    -2.16930   0.22640  -3.42800    42    44    41    66
 C    -4.91290   0.62980   0.43690    43    47    35     5
 C    -2.90970   1.27900  -2.93440    44    42    45    48
 C    -4.00010   1.09730  -2.10580    45    44    46    33
 C    -4.14760   2.11750  -1.16920    46    50    47    45
 C    -4.54110   1.84400   0.11690    47    43    75    46
 C    -2.07780   2.38200  -2.89430    48    59    49    44
 C    -2.25210   3.40490  -1.98870    49    48    50    54
 C    -3.30540   3.19780  -1.11090    50    46    51    49
 C    -3.18630   3.51910   0.21790    51    52    75    50
 C    -2.08070   4.08890   0.63540    52    51    55     1
 C     0.17050   3.76120  -2.14260    53    56    54    61
 C    -1.09970   4.07860  -1.57600    54    49    55    53
 C    -1.09390   4.45960  -0.22030    55    58    52    54
 C     1.29420   4.00780  -1.36660    56    64    57    53
 C     1.20550   4.37450  -0.04530    57    58    19    56
 C     0.02810   4.51840   0.50950    58    57    55    18
 C    -0.84300   2.01880  -3.37880    59    48    61    66
 C     1.54860   1.93140  -3.21070    60    63    61    70
 C     0.33010   2.67520  -3.06600    61    59    53    60
 C     3.71450   1.55640  -2.16290    62    63    71    77
 C     2.66670   2.38680  -2.44660    63    62    64    60
 C     2.48260   3.38160  -1.50480    64    56    63    79
 C     0.23250  -0.12300  -3.79900    65    66    72    70
 C    -0.89190   0.68090  -3.71660    66    59    65    42
 C     3.33680  -2.33320  -2.16200    67    82    87    68
 C     2.43390  -1.70510  -3.06360    68    74    67    69
 C     2.63090  -0.31030  -3.27760    69    71    68    70
 C     1.51370   0.51600  -3.60290    70    69    65    60
 C     3.73170   0.26110  -2.60950    71    62    83    69
 C    -0.00080  -1.52370  -3.56840    72    74    65    40
 C     0.88810  -3.37900  -2.34850    73    38    85    74
 C     1.14070  -2.27680  -3.17290    74    73    68    72
 C    -3.83800   2.62320   0.98410    75    51    47     3
 C     4.99950   0.39760  -0.77090    76    77    80    83
 C     4.47530   1.62700  -0.98310    77    76    78    62
 C     4.09940   2.47130   0.05520    78    79    77    97
 C     3.14810   3.37550  -0.27020    79    78    19    64
 C     5.10480  -0.07750   0.49990    80    76   100    84
 C     4.49070  -2.21800  -0.26160    81    84    86    82
 C     4.36320  -1.71100  -1.53950    82    83    67    81
 C     4.58380  -0.42220  -1.77840    83    82    76    71
 C     4.81370  -1.39860   0.74710    84    81    92    80
 C     1.75170  -3.80380  -1.38410    85    87    96    73
 C     3.54690  -3.17560  -0.07350    86    81    87    94
 C     2.94410  -3.30650  -1.29170    87    85    67    86
 C     3.03770   0.12900   3.14550    88    91    99    89
 C     2.04750  -0.75020   3.47200    89    88    11    90
 C     2.00140  -2.06730   2.99860    90    89    32    93
 C     4.06870  -0.22680   2.39080    91    88    92   100
 C     4.11370  -1.51190   1.91700    92    84    91    93
 C     3.08180  -2.45610   2.15200    93    94    92    90
 C     2.80270  -3.37900   1.11890    94    93    95    86
 C     1.51040  -3.94260   1.01790    95    96    94    30
 C     1.06840  -4.22710  -0.28780    96    24    85    95
 C     4.11880   1.97580   1.39010    97   100    78    98
 C     3.06320   2.37980   2.27360    98    99    17    97
 C     2.56420   1.40600   3.13080    99    88    15    98
 C     4.63660   0.68170   1.53020   100    80    91    97
