   100
C100-C1-404                                                                     
 C     1.36290  -3.65690   1.98510     1     6     2    62
 C     2.13100  -3.83640   0.88070     2     1     3     9
 C     3.29970  -3.09740   0.90210     3     4     2    61
 C     3.90920  -2.69410  -0.24020     4     5     3    32
 C     3.29430  -2.94350  -1.41280     5     4    18    10
 C     0.03440  -3.89760   1.96390     6     1    73     7
 C    -0.69320  -4.25940   0.82520     7     6    14     8
 C     0.04570  -4.28590  -0.40700     8     9     7    12
 C     1.46150  -4.12300  -0.34440     9    10     2     8
 C     2.09630  -3.60940  -1.46490    10     5    26     9
 C    -2.00040  -3.58190  -1.48960    11    27    13    12
 C    -0.64870  -3.85930  -1.60670    12    11    25     8
 C    -2.70380  -3.64970  -0.30350    13    14    11   100
 C    -2.05980  -3.92560   0.87330    14    13    15     7
 C    -2.57650  -3.20480   1.95660    15    74    97    14
 C     3.50240   0.20140  -2.92680    16    33    22    17
 C     4.09320  -0.86370  -2.26620    17    18    16    31
 C     3.36190  -2.02820  -2.41190    18     5    19    17
 C     2.17340  -2.12320  -3.11120    19    21    26    18
 C     0.19730  -1.00400  -3.90930    20    21    24    29
 C     1.58830  -1.04520  -3.73890    21    19    22    20
 C     2.30830   0.12590  -3.61390    22    44    16    21
 C    -1.75230   0.39590  -3.77000    23    24    45    30
 C    -0.40190   0.31620  -3.98610    24    23    43    20
 C     0.03740  -3.17320  -2.66750    25    26    12    29
 C     1.40310  -3.12050  -2.55170    26    25    10    19
 C    -2.66390  -2.68710  -2.29630    27    11    93    28
 C    -1.97980  -1.92860  -3.23650    28    30    27    29
 C    -0.60660  -2.13050  -3.44160    29    28    25    20
 C    -2.53870  -0.68530  -3.45290    30    23    96    28
 C     4.76140  -0.60580  -1.04610    31    35    32    17
 C     4.60620  -1.54310  -0.03530    32     4    31    52
 C     3.59850   1.47290  -2.45080    33    34    16    36
 C     4.26100   1.71810  -1.31770    34    33    42    35
 C     4.82240   0.69260  -0.59320    35    34    31    50
 C     2.47550   2.18580  -2.78940    36    33    44    40
 C    -0.09110   4.15630  -1.07820    37    38    55    39
 C    -1.48250   4.03520  -0.99640    38    48    85    37
 C     0.56890   3.50540  -2.17780    39    40    37    47
 C     1.95880   3.23250  -2.01970    40    36    39    41
 C     2.66610   3.50820  -0.80130    41    54    42    40
 C     3.79250   2.70210  -0.50870    42    34    49    41
 C     0.34420   1.52230  -3.71370    43    44    24    47
 C     1.68940   1.35630  -3.55600    44    43    36    22
 C    -2.37370   1.52470  -3.29780    45    23    46    89
 C    -1.65450   2.64520  -2.91180    46    48    45    47
 C    -0.25200   2.68140  -3.08350    47    46    43    39
 C    -2.25050   3.34460  -1.88460    48    38    46    92
 C     4.11950   2.27610   0.75640    49    53    50    42
 C     4.68050   1.03370   0.73900    50    49    35    51
 C     4.38920   0.09900   1.74340    51    52    50    58
 C     4.40430  -1.20040   1.29870    52    61    51    32
 C     3.35190   2.64380   1.76210    53    49    56    57
 C     1.94170   4.00840   0.29670    54    55    41    56
 C     0.59160   4.35290   0.16280    55    54    72    37
 C     2.34490   3.51910   1.56580    56    53    64    54
 C     3.03040   1.75000   2.77340    57    65    58    53
 C     3.47300   0.44330   2.78980    58    57    51    59
 C     2.56440  -0.50470   3.37770    59    60    58    69
 C     2.70990  -1.83570   2.89080    60    62    61    59
 C     3.59680  -2.14250   1.87290    61    52    60     3
 C     1.62770  -2.66760   2.94630    62    71    60     1
 C     0.22830   3.62230   2.45010    63    64    72    66
 C     1.47250   3.26080   2.56920    64    63    56    65
 C     1.81540   2.13690   3.26730    65    64    57    68
 C    -0.76380   2.89140   3.04770    66    78    63    67
 C    -0.52490   1.68860   3.71830    67    66    75    68
 C     0.85890   1.28110   3.82300    68    65    69    67
 C     1.24580  -0.08410   3.89670    69    68    70    59
 C     0.15920  -1.00330   3.95350    70    71    69    76
 C     0.43890  -2.29520   3.48750    71    62    73    70
 C    -0.21270   4.23150   1.31880    72    86    63    55
 C    -0.50050  -3.12110   2.95760    73    74    71     6
 C    -1.75840  -2.76240   2.93820    74    73    15    77
 C    -1.60780   0.76730   3.70760    75    67    76    80
 C    -1.22860  -0.59530   3.88110    76    77    75    70
 C    -2.14510  -1.53930   3.40010    77    74    83    76
 C    -1.90280   3.17840   2.35420    78    66    79    86
 C    -2.98970   2.33320   2.28920    79    78    88    80
 C    -2.87460   1.09400   3.01170    80    82    79    75
 C    -4.50180   0.19880   1.39750    81    87    98    82
 C    -3.70970   0.03690   2.54130    82    83    81    80
 C    -3.31670  -1.25940   2.75560    83    77    82    97
 C    -3.31450   3.26680   0.06560    84    85    92    88
 C    -2.18950   3.99890   0.18600    85    86    84    38
 C    -1.53540   4.02100   1.32150    86    85    72    78
 C    -4.50420   1.36340   0.68060    87    81    88    90
 C    -3.78490   2.44710   1.10640    88    87    84    79
 C    -3.56620   1.13310  -2.70550    89    96    91    45
 C    -4.69850   1.05510  -0.66180    90    94    91    87
 C    -4.10380   1.82040  -1.64590    91    92    89    90
 C    -3.42420   2.92550  -1.25980    92    91    84    48
 C    -3.79250  -2.22780  -1.63330    93    95   100    27
 C    -4.82600  -0.30500  -0.76240    94    90    98    95
 C    -4.32140  -0.98240  -1.86440    95    96    93    94
 C    -3.67040  -0.23060  -2.80680    96    95    89    30
 C    -3.60320  -2.30580   1.87350    97    99    15    83
 C    -4.76080  -0.84490   0.50300    98    99    94    81
 C    -4.27880  -2.10840   0.70900    99    97    98   100
 C    -3.79580  -2.80190  -0.38540   100    93    99    13
