   100
C100-C1-121                                                                     
 C     4.53880   0.42400   1.58150     1     7    64     2
 C     3.64440   0.15080   2.63340     2     3     1    10
 C     3.24560  -1.15090   2.71480     3     2     4    63
 C     2.01790  -1.51010   3.22510     4     3    15     5
 C     1.06580  -0.59660   3.68590     5     4     6    11
 C    -0.28310  -1.07380   3.71230     6    13     5    16
 C     4.57030   1.62780   0.97330     7     8     1    69
 C     3.76500   2.59860   1.42710     8     7    97     9
 C     2.86900   2.37820   2.44190     9     8    30    10
 C     2.72560   1.14350   3.07570    10     9     2    11
 C     1.42160   0.80720   3.59270    11    10    12     5
 C     0.35200   1.77480   3.49610    12    32    11    31
 C    -1.30190  -0.07730   3.75190    13    14     6    32
 C    -2.59040  -0.45090   3.34810    14    18    26    13
 C     1.69910  -2.74960   2.68690    15    17    44     4
 C    -0.61620  -2.41420   3.19430    16    19    17     6
 C     0.41290  -3.23090   2.60990    17    15    35    16
 C    -2.89610  -1.68260   2.85580    18    14    19    21
 C    -1.94750  -2.66300   2.75330    19    18    20    16
 C    -2.17450  -3.55550   1.71700    20    34    19    23
 C    -3.96660  -1.53410   1.96600    21    22    27    18
 C    -4.08570  -2.34120   0.87510    22    23    21    24
 C    -3.19570  -3.35970   0.77980    23    22    40    20
 C    -4.47720  -1.72370  -0.29190    24    22    29    42
 C    -3.21880   1.67770   2.68280    25    26    86    33
 C    -3.51420   0.40450   2.81770    26    25    27    14
 C    -4.32530  -0.21280   1.91780    27    26    21    28
 C    -4.77970   0.44070   0.76110    28    29    27    87
 C    -4.80600  -0.38700  -0.35300    29    82    24    28
 C     1.81890   3.24030   2.23980    30    31     9   100
 C     0.57110   3.01900   2.76000    31    30    92    12
 C    -0.98360   1.31630   3.62760    32    33    12    13
 C    -1.99090   2.13870   3.09160    33    93    25    32
 C    -1.15940  -4.22550   1.11830    34    20    37    35
 C     0.15840  -4.14350   1.52990    35    34    36    17
 C     1.15770  -4.38330   0.53690    36    43    39    35
 C    -1.54090  -4.38490  -0.19330    37    38    40    34
 C    -0.60680  -4.40990  -1.12760    38    37    39    56
 C     0.69070  -4.46450  -0.78660    39    38    45    36
 C    -2.72440  -3.79780  -0.43370    40    37    23    41
 C    -2.97820  -3.10610  -1.62520    41    42    40    55
 C    -3.88280  -2.08640  -1.49570    42    57    41    24
 C     2.43830  -3.85790   0.68920    43    44    36    47
 C     2.70520  -3.09450   1.80290    44    63    43    15
 C     1.35800  -3.89020  -1.82260    45    46    39    48
 C     2.55160  -3.38660  -1.66010    46    45    54    47
 C     3.15640  -3.43360  -0.43920    47    61    46    43
 C     0.46770  -3.31420  -2.69360    48    56    45    52
 C    -0.09780   0.08320  -3.85700    49    50    51    74
 C    -1.18800   0.93840  -3.71750    50    77    60    49
 C    -0.37100  -1.31900  -3.68920    51    52    49    59
 C     0.75890  -2.12300  -3.37480    52    48    51    53
 C     2.07560  -1.57650  -3.20350    53    54    75    52
 C     2.95630  -2.28930  -2.35790    54    46    65    53
 C    -1.91330  -2.97070  -2.56560    55    56    41    59
 C    -0.77820  -3.69060  -2.29460    56    48    55    38
 C    -3.81700  -0.97020  -2.27010    57    42    82    58
 C    -2.75750  -0.79150  -3.16820    58    60    57    59
 C    -1.73370  -1.75910  -3.31680    59    58    55    51
 C    -2.46880   0.52070  -3.39380    60    58    50    84
 C     4.08270  -2.43790  -0.43260    61    47    62    65
 C     4.42690  -1.79640   0.72370    62    64    61    63
 C     3.66390  -2.11990   1.82360    63    44    62     3
 C     4.84530  -0.51600   0.60260    64    62     1    67
 C     3.97760  -1.73660  -1.64150    65    66    54    61
 C     4.30440  -0.42630  -1.77270    66    65    67    71
 C     4.87580   0.14830  -0.62380    67    69    64    66
 C     4.10610   2.24910  -1.23030    68    69    96    73
 C     4.76660   1.46020  -0.37020    69    67    68     7
 C     1.25790   2.07770  -3.25100    70    72    78    74
 C     3.48920   0.36670  -2.64580    71    73    66    75
 C     2.37410   2.52540  -2.57760    72    73    70    95
 C     3.45500   1.72050  -2.32010    73    72    68    71
 C     1.20830   0.67670  -3.65730    74    75    49    70
 C     2.33160  -0.17670  -3.33220    75    53    74    71
 C    -2.28840   2.59750  -2.77490    76    79    84    77
 C    -1.08980   2.25460  -3.33140    77    76    78    50
 C     0.10230   2.85810  -3.01360    78    77    70    81
 C    -2.35010   3.51830  -1.81280    79    76    89    80
 C    -1.18710   4.11090  -1.40750    80    79    94    81
 C     0.04850   3.87120  -1.98460    81    80    98    78
 C    -4.44480   0.07960  -1.59380    82    83    29    57
 C    -4.12690   1.39450  -1.79960    83    82    84    90
 C    -3.14990   1.56100  -2.77950    84    76    60    83
 C    -2.80240   3.38980   1.47520    85    88    86    93
 C    -3.71470   2.39530   1.63120    86    85    25    87
 C    -4.45540   1.80650   0.58330    87    86    28    90
 C    -2.59680   3.90500   0.26600    88    85    89    94
 C    -3.25650   3.37710  -0.80360    89    88    79    90
 C    -4.16480   2.31490  -0.71950    90    89    83    87
 C    -0.26410   4.34450   0.81950    91    94    99    92
 C    -0.48040   3.71040   2.09970    92    93    31    91
 C    -1.74880   3.26100   2.34960    93    33    92    85
 C    -1.34260   4.35160  -0.05580    94    88    80    91
 C     2.33570   3.52110  -1.59510    95    96    98    72
 C     3.38490   3.29810  -0.76890    96    95    68    97
 C     3.21840   3.48930   0.56370    97   100     8    96
 C     1.15920   4.11810  -1.18330    98    95    81    99
 C     1.00280   4.35000   0.23890    99   100    91    98
 C     2.03880   3.92950   1.04390   100    97    99    30
