   100
C100-C2-435                                                                     
 C     1.39670   4.24840   0.48300     1     6     2    55
 C     2.20690   3.95180  -0.57130     2     1     3     9
 C     3.36430   3.28880  -0.19990     3     4     2    56
 C     3.98740   2.41480  -1.04360     4     5     3    32
 C     3.41620   2.14760  -2.22090     5     4    18    10
 C     0.07500   4.46000   0.31270     6     1    76     7
 C    -0.61360   4.30430  -0.89800     7     6    14     8
 C     0.16720   3.80960  -1.99870     8     9     7    12
 C     1.58050   3.69210  -1.82400     9    10     2     8
 C     2.24120   2.74960  -2.60070    10     5    26     9
 C    -1.84620   2.69710  -2.73940    11    27    13    12
 C    -0.49000   2.91750  -2.93500    12    11    25     8
 C    -2.58930   3.23490  -1.71300    13    14    11    98
 C    -1.98690   4.01030  -0.75780    14    13    15     7
 C    -2.56320   3.83880   0.49770    15    77    95    14
 C     3.61490  -1.36730  -2.33090    16    33    17    22
 C     4.16330  -0.13100  -2.07660    17    16    18    31
 C     3.49130   0.89570  -2.73280    18     5    19    17
 C     2.34690   0.72200  -3.48920    19    21    26    18
 C     0.40030  -0.62270  -3.93410    20    21    24    29
 C     1.78470  -0.51180  -3.70300    21    19    22    20
 C     2.47690  -1.55600  -3.11980    22    43    21    16
 C    -1.57970  -1.87110  -3.39650    23    24    30    44
 C    -0.21900  -1.88540  -3.58650    24    23    42    20
 C     0.22670   1.86800  -3.60750    25    26    12    29
 C     1.58350   1.86460  -3.42140    26    25    10    19
 C    -2.47470   1.54120  -3.13720    27    11    28    92
 C    -1.77860   0.49250  -3.70940    28    30    27    29
 C    -0.39770   0.60440  -3.94100    29    28    25    20
 C    -2.34930  -0.73270  -3.47950    30    28    23    94
 C     4.75290   0.10670  -0.80660    31    32    17    35
 C     4.62400   1.42670  -0.33890    32    53     4    31
 C     3.66240  -2.39070  -1.43050    33    16    34    37
 C     4.21990  -2.20730  -0.17110    34    36    33    35
 C     4.73780  -0.93330   0.16570    35    34    51    31
 C     3.58390  -2.96320   0.79760    36    39    49    34
 C     2.58320  -3.22900  -1.68980    37    38    43    33
 C     1.98810  -4.00170  -0.72790    38    37    39    47
 C     2.54850  -3.82360   0.53250    39    41    36    38
 C     0.50240  -4.15160   1.55160    40    41    67    48
 C     1.76510  -3.84230   1.64470    41    40    54    39
 C     0.49160  -2.93760  -2.91140    42    43    24    46
 C     1.84560  -2.70930  -2.72680    43    22    37    42
 C    -2.23980  -2.76380  -2.58110    44    87    23    45
 C    -1.57930  -3.70370  -1.79810    45    44    90    46
 C    -0.16480  -3.82050  -1.96800    46    45    47    42
 C     0.61590  -4.30420  -0.85950    47    48    38    46
 C    -0.08070  -4.45650   0.34720    48    91    40    47
 C     3.34970  -2.46530   2.05630    49    50    54    36
 C     3.76050  -1.26060   2.37210    50    49    51    71
 C     4.49760  -0.51910   1.49920    51    52    50    35
 C     4.27940   0.76540   1.86460    52    53    51    58
 C     4.38980   1.74150   0.97350    53    52    56    32
 C     2.18020  -2.92960   2.55730    54    49    41    69
 C     1.61170   3.73530   1.77000    55    57    66     1
 C     3.60340   2.83490   1.08820    56    53     3    57
 C     2.65700   2.94860   2.09960    57    55    56    61
 C     3.29530   0.81460   2.85060    58    71    61    52
 C     0.70340   0.20210   3.84910    59    70    74    60
 C     1.10070   1.58790   3.54310    60    65    61    59
 C     2.41770   1.87140   3.00550    61    58    57    60
 C    -2.94610   0.48420   3.13460    62    75    82    63
 C    -1.67740   0.85920   3.61860    63    62    64    74
 C    -1.28610   2.19330   3.31990    64    65    78    63
 C     0.07890   2.53850   3.25330    65    64    66    60
 C     0.40340   3.58920   2.36100    66    55    76    65
 C    -0.40840  -3.56810   2.39050    67    84    40    68
 C    -0.08320  -2.51050   3.27560    68    69    67    73
 C     1.28440  -2.16640   3.34780    69    68    54    70
 C     1.68040  -0.83200   3.63910    70    71    69    59
 C     2.95120  -0.46160   3.16510    71    58    50    70
 C    -2.41360  -1.84380   2.99760    72    75    86    73
 C    -1.10220  -1.55730   3.54760    73    68    72    74
 C    -0.70600  -0.17380   3.84490    74    63    59    73
 C    -3.29280  -0.79270   2.82670    75    62    72    80
 C    -0.50550   4.16350   1.51870    76    77    66     6
 C    -1.76820   3.85460   1.60700    77    76    78    15
 C    -2.18680   2.94310   2.51860    78    83    77    64
 C    -4.39630  -1.71630   0.96240    79    80    85    99
 C    -4.27270  -0.73250   1.84260    80    79    81    75
 C    -4.49320   0.55200   1.47740    81    80    82    96
 C    -3.75660   1.29210   2.35030    82    83    81    62
 C    -3.35740   2.49300   2.01910    83    82    78    95
 C    -1.60750  -3.71780   1.77720    84    86    67    91
 C    -3.60410  -2.81210   1.08200    85    79    89    86
 C    -2.65410  -2.92230   2.09120    86    84    85    72
 C    -3.41980  -2.16190  -2.21160    87    88    94    44
 C    -4.00370  -2.41680  -1.03560    88    87    89    99
 C    -3.37330  -3.29230  -0.20120    89    88    90    85
 C    -2.21340  -3.96130  -0.54790    90    91    89    45
 C    -1.40210  -4.25620   0.50000    91    48    90    84
 C    -3.61550   1.36650  -2.34980    92    98    93    27
 C    -4.16670   0.13010  -2.08680    93    92    94   100
 C    -3.49720  -0.90710  -2.73000    94    87    30    93
 C    -3.60660   2.98920   0.76240    95    15    83    97
 C    -4.74920   0.94560   0.13730    96    97    81   100
 C    -4.23580   2.22090  -0.20420    97    98    95    96
 C    -3.67500   2.39770  -1.45870    98    92    97    13
 C    -4.64820  -1.42390  -0.35320    99    88    79   100
 C    -4.76730  -0.10890  -0.82090   100    99    93    96
