   100
C100-C1-12                                                                      
 C    -3.37410  -0.98430   2.81700     1     2    63     4
 C    -4.38870  -0.32260   2.11920     2     3     1    56
 C    -4.47830   1.04690   2.09560     3     6    23     2
 C    -2.35760  -0.19310   3.49540     4     5     9     1
 C    -2.46540   1.17200   3.34400     5     6     4    14
 C    -3.49260   1.76020   2.67980     6     3    24     5
 C     0.42510  -2.44580   3.11850     7    10     8    68
 C    -0.83040  -1.95170   3.38330     8     9     7    66
 C    -1.03790  -0.64380   3.73930     9     8     4    12
 C     1.59270  -1.74130   3.24880    10     7    19    11
 C     1.46040  -0.34670   3.60190    11    16    12    10
 C     0.14170   0.20070   3.78160    12    13    11     9
 C    -0.05320   1.58380   3.45550    13    14    33    12
 C    -1.35060   1.98730   3.25270    14    13    25     5
 C     3.72320  -0.07220   2.75210    15    94    20    16
 C     2.54510   0.50810   3.26220    16    15    11    34
 C     3.31410  -3.15510   0.39050    17    98    18    76
 C     2.49600  -3.24430   1.51010    18    69    17    19
 C     2.70750  -2.24200   2.52840    19    20    10    18
 C     3.78610  -1.40160   2.36950    20    19    99    15
 C    -4.50940   2.58110   0.31820    21    38    22    23
 C    -3.49350   3.26060   0.91190    22    24    21    31
 C    -5.03390   1.46120   0.92500    23    37     3    21
 C    -3.00650   2.88390   2.10160    24    22    25     6
 C    -1.70050   3.02550   2.41000    25    24    29    14
 C     1.50280   3.69410   0.85670    26    27    28    51
 C     2.82190   3.30820   1.03050    27    90    32    26
 C     0.57910   3.37300   1.86600    28    29    26    33
 C    -0.76730   3.61010   1.57650    29    25    28    30
 C    -1.23890   3.89700   0.24270    30    31    52    29
 C    -2.57990   3.67120  -0.02880    31    22    42    30
 C     3.23080   2.45310   2.03200    32    95    27    34
 C     0.97710   2.37930   2.87970    33    34    13    28
 C     2.28870   1.86890   2.88290    34    32    33    16
 C    -5.12730   0.37170  -1.13800    35    37    57    36
 C    -4.56450   1.49360  -1.73610    36    38    41    35
 C    -5.31220   0.34180   0.20600    37    35    23    56
 C    -4.23150   2.57090  -1.00880    38    36    21    42
 C    -2.86850  -0.98290  -3.27040    39    40    60    50
 C    -3.86250  -0.25380  -2.79470    40    39    41    57
 C    -3.71670   1.09970  -2.72660    41    36    40    45
 C    -3.03470   3.21110  -1.24780    42    38    31    44
 C    -0.77870   3.20930  -2.08930    43    44    47    52
 C    -2.13340   2.85250  -2.25250    44    42    43    45
 C    -2.48810   1.72930  -3.05130    45    41    49    44
 C     1.51120   2.72310  -2.54920    46    47    53    85
 C     0.20550   2.50470  -2.86110    47    46    48    43
 C    -0.08440   1.28720  -3.56340    48    49    47    87
 C    -1.44620   0.93600  -3.60650    49    50    48    45
 C    -1.70270  -0.42270  -3.71060    50    39    77    49
 C     1.02840   3.84990  -0.49780    51    53    52    26
 C    -0.32660   3.81900  -0.82730    52    51    30    43
 C     1.93460   3.46210  -1.46270    53    91    51    46
 C    -4.46580  -1.95620   0.30670    54    56    62    55
 C    -4.35070  -1.95480  -1.13580    55    57    58    54
 C    -4.92830  -0.78520   0.91480    56    37    54     2
 C    -4.65810  -0.73580  -1.77230    57    35    40    55
 C    -3.34220  -2.73800  -1.73820    58    59    60    55
 C    -2.57890  -3.57330  -0.98710    59    58    61    73
 C    -2.62400  -2.22440  -2.81440    60    39    71    58
 C    -2.71450  -3.59950   0.37510    61    64    59    62
 C    -3.56840  -2.74130   1.07830    62    61    54    63
 C    -3.03160  -2.25150   2.33090    63    66     1    62
 C    -1.50720  -4.02220   0.83630    64    65    61    67
 C    -1.05320  -3.59690   2.00260    65    64    66    68
 C    -1.77470  -2.69890   2.70590    66    65     8    63
 C    -0.60160  -4.23030  -0.16360    67    73    64    70
 C     0.27580  -3.47970   2.21860    68    65     7    69
 C     1.24930  -3.80740   1.29580    69    68    18    70
 C     0.76520  -4.13200  -0.01530    70    67    75    69
 C    -1.29590  -2.48140  -3.07880    71    72    77    60
 C    -0.54550  -3.35590  -2.35610    72    71    73    74
 C    -1.25700  -3.90770  -1.30680    73    67    72    59
 C     0.85440  -3.20190  -2.30770    74    72    75    79
 C     1.51930  -3.70910  -1.13930    75    76    70    74
 C     2.78580  -3.28820  -0.88970    76    75    82    17
 C    -0.71930  -1.37270  -3.65050    77    50    78    71
 C     0.62550  -1.11160  -3.62600    78    77    87    79
 C     1.49420  -2.09800  -3.03470    79    81    78    74
 C     3.28830  -0.38610  -2.94390    80    83    81    86
 C     2.81810  -1.71560  -2.71890    81    82    79    80
 C     3.47800  -2.41150  -1.69230    82    97    76    81
 C     4.41930   0.04660  -2.19630    83    88   100    80
 C     3.62480   2.22050  -2.10930    84    88    91    85
 C     2.55170   1.87500  -2.87480    85    84    46    86
 C     2.32160   0.58770  -3.35270    86    85    87    80
 C     0.98970   0.27810  -3.68600    87    86    78    48
 C     4.59060   1.34620  -1.78920    88    84    83    92
 C     4.71810   2.29110   0.35260    89    90    95    92
 C     3.73040   3.15940   0.01250    90    91    89    27
 C     3.22510   3.16840  -1.22750    91    90    53    84
 C     5.21920   1.39350  -0.56310    92    96    89    88
 C     5.23930  -0.27680   1.09390    93    99    94    96
 C     4.65280   0.59370   1.97740    94    95    93    15
 C     4.39820   1.86040   1.61420    95    94    89    32
 C     5.48730   0.11140  -0.21130    96    92   100    93
 C     4.51900  -1.90930  -0.96310    97   100    98    82
 C     4.38800  -2.33730   0.32620    98    99    17    97
 C     4.69460  -1.49720   1.33900    99    98    93    20
 C     5.04360  -0.70720  -1.23000   100    97    83    96
