   100
C100-C1-288                                                                     
 C     2.70520  -0.59050  -3.25510     1     9     2     4
 C     3.79470  -0.32140  -2.45130     2     1     3     7
 C     4.18520  -1.40820  -1.67300     3    60     6     2
 C     2.04370  -1.81230  -3.26790     4     5    21     1
 C     2.43110  -2.86860  -2.48150     5     4     6    28
 C     3.53600  -2.61900  -1.67960     6    66     3     5
 C     3.95790   1.00920  -1.98760     7     8     2    11
 C     4.54600   1.10860  -0.71360     8    31    59     7
 C     1.82240   0.37090  -3.64710     9     1    10    22
 C     1.95300   1.70010  -3.28270    10     9    15    11
 C     3.05140   2.04780  -2.39270    11     7    12    10
 C     2.85120   3.15950  -1.50290    12    13    30    11
 C     1.65400   3.84590  -1.62460    13    16    12    32
 C    -0.51370   1.77250  -3.65980    14    17    24    15
 C     0.73980   2.41520  -3.33900    15    16    10    14
 C     0.66910   3.52400  -2.50780    16    13    19    15
 C    -1.66890   2.34380  -3.16430    17    97    18    14
 C    -1.64150   3.42820  -2.32400    18    19    54    17
 C    -0.50420   3.97880  -1.98660    19    18    35    16
 C    -0.32520  -2.40970  -3.28360    20    21    26    25
 C     0.73650  -1.59170  -3.64350    21    22     4    20
 C     0.59780  -0.25430  -3.91020    22    21    24     9
 C    -1.81150  -0.41270  -3.57310    23    96    25    24
 C    -0.62540   0.37450  -3.88920    24    22    14    23
 C    -1.65710  -1.82220  -3.24390    25    91    23    20
 C     0.06270  -3.52600  -2.47480    26    29    20    28
 C     1.61680  -4.24910  -0.75520    27    98    65    28
 C     1.41580  -3.72970  -2.05180    28     5    27    26
 C    -0.93020  -3.98140  -1.64030    29    90    26   100
 C     3.43850   3.16220  -0.20500    30    31    34    12
 C     4.24860   2.12270   0.15470    31    30     8    38
 C     1.00420   4.43410  -0.54860    32    33    35    13
 C     1.49180   4.29510   0.66510    33    32    34    47
 C     2.68890   3.70480   0.84970    34    33    36    30
 C    -0.33460   4.46000  -0.72590    35    32    19    53
 C     2.63590   3.13140   2.09480    36    37    34    40
 C     3.41750   2.06370   2.39590    37    36    38    39
 C     4.27460   1.59110   1.44380    38    37    58    31
 C     2.82750   1.12570   3.20150    39    37    56    43
 C     1.34270   3.29150   2.57570    40    47    42    36
 C    -0.66790   2.19060   3.33490    41    42    45    51
 C     0.73130   2.34150   3.36430    42    40    43    41
 C     1.53350   1.25320   3.65570    43    68    39    42
 C    -2.44960   0.60140   3.35500    44    45    74    52
 C    -1.16360   0.87830   3.69190    45    44    67    41
 C    -0.76920   3.96870   1.58600    46    47    53    51
 C     0.61850   4.04400   1.70480    47    40    33    46
 C    -4.28130   2.13450   0.24310    48    83    88    49
 C    -3.33500   3.02680   0.80610    49    55    48    50
 C    -2.77280   2.66220   2.08180    50    52    51    49
 C    -1.46720   3.06910   2.46110    51    50    46    41
 C    -3.25570   1.47100   2.63100    52    84    44    50
 C    -1.30070   4.27110   0.29140    53    55    35    46
 C    -2.67870   3.38690  -1.46360    54    18    86    55
 C    -2.54620   3.75770  -0.10190    55    53    49    54
 C     3.12140  -0.21570   3.10290    56    39    57    69
 C     4.04160  -0.71220   2.20410    57    56    62    58
 C     4.60020   0.26570   1.36140    58    59    38    57
 C     4.85500   0.00260   0.04790    59    60    58     8
 C     4.67990  -1.22870  -0.40680    60    59     3    63
 C     2.68280  -2.76280   2.19410    61    64    71    62
 C     3.82600  -2.01230   1.73130    62    57    63    61
 C     4.24490  -2.24660   0.40310    63    66    60    62
 C     2.17430  -3.72280   1.33690    64    81    61    65
 C     2.65080  -3.88950   0.04580    65    66    27    64
 C     3.62720  -3.13150  -0.40950    66    65    63     6
 C    -0.30920  -0.27250   3.87790    67    68    45    72
 C     1.03510  -0.00770   3.85690    68    67    43    69
 C     2.00740  -0.92070   3.50860    69    68    56    71
 C     0.30630  -2.58250   3.11540    70    80    71    72
 C     1.70650  -2.20010   3.08870    71    69    61    70
 C    -0.71390  -1.62930   3.55180    72    75    67    70
 C    -4.03820  -0.58410   2.39910    73    76    84    74
 C    -2.90800  -0.69410   3.16330    74    73    44    75
 C    -2.07300  -1.82680   3.17100    75    74    72    78
 C    -4.35840  -1.56290   1.53980    76    73    77    85
 C    -3.59170  -2.66260   1.48670    77    76    92    78
 C    -2.45510  -2.89040   2.29590    78    79    77    75
 C    -1.45640  -3.73150   1.79770    79    78    80    99
 C    -0.10960  -3.62610   2.22470    80    81    79    70
 C     0.87090  -4.11880   1.35310    81    64    98    80
 C    -4.99770   0.04230  -0.04240    82    85    87    83
 C    -4.74830   1.03750   0.87420    83    84    48    82
 C    -4.24070   0.71570   2.07430    84    83    73    52
 C    -4.81240  -1.23370   0.28250    85    82    93    76
 C    -3.46070   2.37620  -1.90370    86    88    54    97
 C    -4.61170   0.47450  -1.27780    87    88    82    95
 C    -4.29630   1.78730  -1.09420    88    86    87    48
 C    -2.65370  -3.72140  -0.33110    89    92    99    90
 C    -2.19340  -3.48850  -1.61440    90    29    89    91
 C    -2.65630  -2.42290  -2.39940    91    90    94    25
 C    -3.63510  -3.02280   0.15520    92    89    93    77
 C    -4.26970  -2.09400  -0.61400    93    85    92    94
 C    -3.77330  -1.70290  -1.88990    94    95    91    93
 C    -3.94040  -0.34540  -2.23430    95    94    96    87
 C    -2.96500   0.28040  -3.06580    96    97    95    23
 C    -2.81730   1.66080  -2.89980    97    17    86    96
 C     0.58020  -4.51140   0.06150    98   100    27    81
 C    -1.65150  -4.17080   0.46180    99   100    89    79
 C    -0.64910  -4.45280  -0.37250   100    98    99    29
