   100
C100-C3-221                                                                     
 C    -0.69870   4.08780   0.71310     1     2    64     7
 C     0.16790   3.75560   1.72940     2     1    10     3
 C     1.57360   3.63470   1.38880     3     4     2    63
 C     2.37860   2.83010   2.22970     4     5     6     3
 C     3.54390   2.26090   1.77720     5    60     4    19
 C     1.76120   2.12550   3.24020     6    11     4    17
 C    -2.04190   3.77860   0.71850     7    69     1     8
 C    -2.68170   3.06450   1.72530     8     7     9    15
 C    -1.85260   2.65390   2.81430     9     8    13    10
 C    -0.45060   3.03430   2.80890    10    11     2     9
 C     0.42370   2.22250   3.51210    11     6    29    10
 C    -3.35300   0.75120   3.02780    12    14    93    13
 C    -2.22970   1.44420   3.49610    13    12    28     9
 C    -4.12070   1.15590   1.97470    14    12    15   100
 C    -3.82140   2.31470   1.29670    15    14    16     8
 C    -4.16420   2.26560  -0.06230    16    68    97    15
 C     2.20130   0.86550   3.64250    17    22    18     6
 C     3.27950   0.22730   3.10980    18    17    19    26
 C     4.01140   1.01770   2.22960    19    20    18     5
 C     4.76250   0.48120   1.24510    20    19    21    33
 C     4.74240  -0.85690   1.06310    21    20    34    27
 C     1.12710   0.19160   4.10850    22    17    29    24
 C    -0.29060  -1.60180   3.93340    23    24    38    30
 C     1.00970  -1.18540   3.95590    24    23    22    25
 C     2.01090  -1.90570   3.26890    25    24    26    40
 C     3.20770  -1.19240   2.91410    26    27    18    25
 C     3.96520  -1.66740   1.85060    27    21    42    26
 C    -1.24570   0.63410   4.10120    28    29    30    13
 C     0.03950   1.05220   4.11260    29    28    11    22
 C    -1.37010  -0.74970   4.07250    30    94    23    28
 C     4.75170   0.82380  -1.06340    31    33    46    32
 C     4.73530  -0.52330  -1.27520    32    34    31    54
 C     4.75270   1.33930   0.18540    33    31    20    60
 C     4.73680  -1.35430  -0.20650    34    35    32    21
 C     3.99010  -2.47750  -0.22890    35    34    36    42
 C     3.26120  -2.83390  -1.35820    36    37    35    53
 C     2.17810  -3.60840  -1.05990    37    55    36    43
 C    -0.71060  -2.68620   3.19520    38    39    23    85
 C     0.15440  -3.39860   2.39960    39    38    88    40
 C     1.56310  -3.04480   2.46200    40    41    39    25
 C     2.36220  -3.38030   1.34230    41    42    43    40
 C     3.52990  -2.71050   1.07200    42    27    41    35
 C     1.73900  -3.90320   0.23260    43    89    41    37
 C     2.18700   2.69670  -2.58940    44    61    45    50
 C     3.26990   2.56230  -1.77000    45    44    46    59
 C     3.99550   1.40240  -2.02470    46    31    45    47
 C     3.52840   0.39450  -2.87680    47    49    54    46
 C     1.55740  -0.63600  -3.86150    48    49    52    57
 C     2.35980   0.50090  -3.59100    49    47    50    48
 C     1.74280   1.72650  -3.48900    50    71    49    44
 C    -0.71620  -1.43830  -3.90340    51    52    72    58
 C     0.15020  -0.39290  -4.13150    52    51    70    48
 C     3.19560  -1.95680  -2.49130    53    54    36    57
 C     3.96240  -0.80680  -2.37060    54    32    47    53
 C     1.10260  -3.67150  -1.87570    55    37    82    56
 C     0.99490  -2.85540  -2.99910    56    58    55    57
 C     1.99680  -1.90580  -3.28240    57    56    53    48
 C    -0.30630  -2.62880  -3.34160    58    56    51    84
 C     3.20950   3.10910  -0.44450    59    60    45    63
 C     3.97980   2.42930   0.48750    60    33     5    59
 C     1.11960   3.44480  -2.23290    61    44    65    62
 C     1.01020   4.00640  -0.96610    62    64    61    63
 C     2.01100   3.77070  -0.00280    63    62    59     3
 C    -0.28920   4.19360  -0.59780    64    62     1    67
 C     0.03080   3.01330  -2.97980    65    66    71    61
 C    -1.25510   3.21880  -2.60580    66    65    67    75
 C    -1.37290   3.88770  -1.39350    67    69    64    66
 C    -3.44010   2.93810  -0.98900    68    69    16    76
 C    -2.43560   3.70940  -0.59310    69    68    67     7
 C    -0.46840   0.90440  -4.04880    70    71    52    74
 C     0.40920   1.91610  -3.70720    71    50    65    70
 C    -2.05740  -1.27590  -3.63080    72    77    51    73
 C    -2.69820  -0.04790  -3.51730    73    72    80    74
 C    -1.86780   1.10040  -3.71320    74    73    75    70
 C    -2.24830   2.29440  -3.00300    75    76    66    74
 C    -3.37030   2.23340  -2.17070    76    81    68    75
 C    -2.43890  -2.37730  -2.91020    77    78    84    72
 C    -3.44610  -2.32940  -2.04420    78    77    79    90
 C    -4.16850  -1.19090  -1.92510    79    78    98    80
 C    -3.83560  -0.03540  -2.64980    80    81    79    73
 C    -4.14060   1.12510  -1.98540    81    76    80    97
 C     0.01800  -4.10460  -1.12670    82    83    89    55
 C    -1.26830  -3.88360  -1.48720    83    82    84    91
 C    -1.38340  -3.17190  -2.67290    84    77    58    83
 C    -2.05300  -2.52280   2.92900    85    94    38    86
 C    -2.69810  -3.03310   1.80600    86    85    87    96
 C    -1.87130  -3.77790   0.90470    87    86    91    88
 C    -0.46970  -3.97330   1.23620    88    89    39    87
 C     0.40350  -4.18480   0.18490    89    43    82    88
 C    -3.37630  -3.00970  -0.84840    90    95    78    91
 C    -2.25640  -3.76100  -0.48410    91    90    83    87
 C    -4.16980  -1.08590   2.01130    92    93   100    96
 C    -3.44160  -0.62400   3.05550    93    94    92    12
 C    -2.43830  -1.35000   3.52450    94    93    30    85
 C    -4.14130  -2.29460   0.02690    95    90    96    98
 C    -3.83850  -2.28660   1.36450    96    95    92    86
 C    -4.66760   1.14520  -0.69220    97    99    16    81
 C    -4.66670  -1.18020  -0.63760    98    99    79    95
 C    -4.92170  -0.00140   0.01240    99   100    97    98
 C    -4.66100   0.02720   1.35400   100    99    92    14
