   100
C100-C1-361                                                                     
 C     4.66770   0.99800   0.77530     1     2     5    64
 C     4.27780   2.14190   0.11760     2    47     1     9
 C     4.06880  -1.46040   1.85850     3     4     6    63
 C     3.77700  -0.35090   2.53270     4     3     5    20
 C     4.08090   0.86730   2.02580     5     4     7     1
 C     3.26110  -2.53890   1.99400     6     3    70    29
 C     3.15440   1.74840   2.54120     7     8     5    13
 C     2.77920   2.90570   1.89670     8     7     9    10
 C     3.40280   3.07530   0.65900     9    33     2     8
 C     1.49030   3.43770   2.13650    10     8    11    15
 C     0.91050   4.22840   1.08100    11    12    32    10
 C    -0.46440   4.36470   1.07060    12    18    34    11
 C     2.27610   1.03490   3.33530    13    14    20     7
 C     0.99920   1.44830   3.59590    14    13    25    15
 C     0.59320   2.73090   3.05330    15    17    14    10
 C    -1.67170   1.96410   3.33250    16    28    40    17
 C    -0.79200   2.96320   2.95290    17    18    16    15
 C    -1.30010   3.80780   1.98430    18    12    17    42
 C     1.74620  -1.36010   3.47190    19    20    29    24
 C     2.64380  -0.29410   3.30920    20     4    13    19
 C    -1.24280  -3.76030   1.92050    21    93   100    22
 C    -0.26900  -3.18430   2.75140    22    21    31    23
 C    -0.65920  -1.98240   3.43540    23    22    26    24
 C     0.39250  -1.02640   3.77190    24    19    25    23
 C     0.06290   0.38530   3.88280    25    28    14    24
 C    -2.02950  -1.52570   3.26930    26    27    94    23
 C    -2.27070  -0.18000   3.46980    27    28    89    26
 C    -1.26190   0.71890   3.74600    28    25    16    27
 C     2.09430  -2.56530   2.79600    29    31     6    19
 C     1.31120  -4.16770   1.20540    30    98    69    31
 C     1.08120  -3.45180   2.40820    31    29    30    22
 C     1.54540   4.28100  -0.19040    32    33    36    11
 C     2.75230   3.69450  -0.37200    33    32     9    46
 C    -1.21000   4.45820  -0.08530    34    35    37    12
 C    -0.60570   4.31780  -1.26180    35    34    36    57
 C     0.73330   4.25130  -1.32530    36    35    44    32
 C    -2.45640   3.98300   0.08330    37    34    42    38
 C    -3.13440   3.29500  -0.92820    38    39    37    56
 C    -4.04740   2.38550  -0.46970    39    58    38    43
 C    -2.94410   1.83060   2.80770    40    89    41    16
 C    -3.40890   2.66670   1.81900    41    42    43    40
 C    -2.55340   3.63550   1.41640    42    41    37    18
 C    -4.21780   2.08610   0.88410    43    41    91    39
 C     1.04020   3.50320  -2.44660    44    45    49    36
 C     2.21860   2.84890  -2.58030    45    44    46    52
 C     3.12670   3.05520  -1.54610    46    47    33    45
 C     4.06990   2.14890  -1.23580    47    48    46     2
 C     4.15900   1.00570  -1.93160    48    47    65    53
 C    -0.14340   3.03320  -2.97390    49    57    44    50
 C    -0.23660   1.81250  -3.62240    50    49    61    51
 C     0.99040   1.05090  -3.75860    51    52    55    50
 C     2.21280   1.60740  -3.26450    52    53    45    51
 C     3.22550   0.72180  -2.90910    53    72    48    52
 C    -0.36940  -0.91660  -3.83710    54    55    73    62
 C     0.90290  -0.38850  -3.83380    55    54    71    51
 C    -2.44770   3.00890  -2.14530    56    57    38    60
 C    -1.18990   3.57900  -2.26290    57    35    49    56
 C    -4.35280   1.26800  -1.19270    58    39    84    59
 C    -3.69380   0.90630  -2.38210    59    58    87    60
 C    -2.66180   1.78830  -2.85850    60    56    59    61
 C    -1.53100   1.21610  -3.57530    61    62    50    60
 C    -1.52910  -0.15800  -3.74030    62    88    61    54
 C     4.60110  -1.38830   0.59060    63    64    68     3
 C     4.88570  -0.17450   0.01020    64    63    65     1
 C     4.57650  -0.14080  -1.34760    65    48    66    64
 C     3.95880  -1.18810  -2.01380    66    67    65    72
 C     3.69110  -2.39840  -1.43830    67    66    68    76
 C     4.08230  -2.46470  -0.09060    68    70    63    67
 C     2.37890  -3.95730   0.39060    69    70    30    77
 C     3.36340  -3.19830   0.79850    70    69    68     6
 C     1.94050  -1.27710  -3.39120    71    72    55    75
 C     3.09900  -0.64850  -2.95880    72    53    66    71
 C    -0.65550  -2.20160  -3.40980    73    78    54    74
 C     0.29540  -3.06330  -2.87370    74    73    82    75
 C     1.65910  -2.59870  -2.86660    75    74    76    71
 C     2.56200  -3.12990  -1.87470    76    77    67    75
 C     1.98430  -3.97910  -0.93380    77    83    69    76
 C    -1.99520  -2.23090  -3.08610    78    80    73    88
 C    -3.61470  -2.63230  -1.49100    79    95    86    80
 C    -2.50610  -3.12060  -2.16690    80    78    79    81
 C    -1.59840  -3.98190  -1.54440    81    80    99    82
 C    -0.22010  -3.98870  -1.91130    82    83    81    74
 C     0.68780  -4.36690  -0.93930    83    77    98    82
 C    -4.79460   0.33300  -0.27780    84    85    91    58
 C    -4.69820  -0.96620  -0.52640    85    84    96    86
 C    -4.16090  -1.38700  -1.71440    86    85    79    87
 C    -3.62530  -0.48230  -2.62610    87    88    86    59
 C    -2.53410  -0.97140  -3.29840    88    62    87    78
 C    -3.32070   0.51100   2.89630    89    40    90    27
 C    -4.20910  -0.07460   2.02160    90    89    97    91
 C    -4.63250   0.78920   0.99760    91    84    43    90
 C    -2.91410  -3.62860   0.48490    92    95    99    93
 C    -2.51160  -3.28350   1.76400    93    21    94    92
 C    -2.99590  -2.16910   2.42190    94    93    26    97
 C    -3.80640  -2.88970  -0.15380    95    92    96    79
 C    -4.40670  -1.85610   0.47250    96    95    85    97
 C    -4.05530  -1.44150   1.77200    97    90    96    94
 C     0.31760  -4.54570   0.37820    98   100    30    83
 C    -1.88960  -4.22080  -0.18170    99   100    92    81
 C    -0.92960  -4.40670   0.73950   100    98    99    21
