   100
C100-C1-197                                                                     
 C     2.43530  -2.35470  -2.73670     1    18    68     2
 C     2.51460  -1.04420  -3.23760     2     1    11     3
 C     3.51880  -0.21630  -2.65800     3    69     2     4
 C     3.31480   1.19330  -2.59360     4     5     3     7
 C     3.95340   1.85360  -1.51280     5    53    21     4
 C     1.13910   0.92180  -3.78160     6    14    11     7
 C     2.12790   1.77560  -3.13500     7     4     8     6
 C     1.68200   3.02470  -2.54670     8     9    20     7
 C     0.34410   3.36670  -2.66780     9    15    22     8
 C     0.14050  -1.39690  -3.84160    10    12    16    11
 C     1.31580  -0.52420  -3.80070    11     2     6    10
 C    -1.10010  -0.81140  -3.93240    12    13    10    99
 C    -1.26910   0.54690  -3.97050    13    12    14    29
 C    -0.20040   1.40920  -3.88210    14    13    15     6
 C    -0.56750   2.61670  -3.32310    15     9    14    31
 C     0.09800  -2.69550  -3.25450    16    18    10    17
 C    -1.10490  -3.24550  -2.66250    17    19    98    16
 C     1.29850  -3.11220  -2.72270    18     1    74    16
 C    -0.93830  -4.07040  -1.55390    19    75    82    17
 C     2.31420   3.55560  -1.39170    20    21    24     8
 C     3.41330   2.95750  -0.89780    21    20     5    37
 C    -0.36610   4.07260  -1.72470    22    23    25     9
 C     0.21910   4.40930  -0.58970    23    22    24    26
 C     1.52960   4.17870  -0.42020    24    23    35    20
 C    -1.68230   3.74810  -1.74410    25    22    31    28
 C    -0.46180   4.33690   0.58800    26    23    40    27
 C    -1.80500   3.99220   0.64850    27    26    48    28
 C    -2.48880   3.71040  -0.59810    28    25    33    27
 C    -2.54340   0.83620  -3.50280    29    94    30    13
 C    -2.86910   2.00990  -2.84160    30    31    29    32
 C    -1.83850   2.89010  -2.80000    31    30    25    15
 C    -3.80090   1.97400  -1.78300    32    96    30    33
 C    -3.58650   2.82060  -0.64220    33    34    28    32
 C    -3.99500   2.31850   0.58930    34    47    90    33
 C     1.72430   4.00330   0.93870    35    36    40    24
 C     2.77090   3.29780   1.43130    36    35    37    43
 C     3.69300   2.88510   0.47130    37    38    36    21
 C     4.47860   1.81820   0.65390    38    37    39    53
 C     4.33300   1.05890   1.76600    39    54    38    44
 C     0.49060   4.03690   1.54670    40    35    26    41
 C     0.19410   3.28740   2.67410    41    40    49    42
 C     1.25230   2.42930   3.18320    42    43    46    41
 C     2.54330   2.48560   2.57730    43    44    36    42
 C     3.35370   1.35530   2.67450    44    39    63    43
 C    -0.47090   0.99130   4.00240    45    46    64    50
 C     0.87500   1.18730   3.82240    46    45    62    42
 C    -3.32750   2.57460   1.76910    47    92    34    48
 C    -2.18180   3.36680   1.85250    48    47    27    49
 C    -1.17890   2.99750   2.83410    49    50    41    48
 C    -1.45230   1.86300   3.57890    50    93    45    49
 C     4.85560  -0.10340  -0.60160    51    53    69    52
 C     4.79060  -0.86390   0.54300    52    54    61    51
 C     4.68800   1.21290  -0.55230    53    51    38     5
 C     4.47840  -0.28400   1.71150    54    52    39    55
 C     3.59550  -0.88400   2.56330    55    54    63    59
 C     0.95750  -3.43110   2.36390    56    57    72    58
 C    -0.41920  -3.38930   2.62820    57    67    78    56
 C     1.76950  -2.39860   2.95070    58    59    56    66
 C     3.03220  -2.14630   2.33570    59    55    58    60
 C     3.41470  -2.80130   1.10980    60    71    61    59
 C     4.26300  -2.06710   0.24350    61    52    70    60
 C     1.68300  -0.00500   3.75530    62    63    46    66
 C     2.91910   0.14690   3.20160    63    62    44    55
 C    -1.04180  -0.25930   4.08020    64    45    65    83
 C    -0.29650  -1.40540   3.90760    65    67    64    66
 C     1.10150  -1.33200   3.71520    66    65    62    58
 C    -1.03210  -2.43680   3.37280    67    57    65    86
 C     3.18360  -2.80460  -1.66620    68    70    73     1
 C     4.31830  -0.79750  -1.63450    69    51    70     3
 C     4.08350  -2.03630  -1.12400    70    68    69    61
 C     2.52730  -3.70230   0.49810    71    60    72    73
 C     1.32700  -4.06420   1.13630    72    71    76    56
 C     2.48520  -3.69090  -0.91930    73    74    68    71
 C     1.37810  -3.95390  -1.64000    74    75    73    18
 C     0.29000  -4.37910  -1.04890    75    74    76    19
 C     0.25680  -4.47560   0.30870    76    79    75    72
 C    -2.56460  -3.16380   1.90980    77    78    86    80
 C    -1.39550  -3.85090   1.77100    78    79    77    57
 C    -1.05400  -4.34900   0.60270    79    78    76    82
 C    -3.43710  -2.88800   0.84100    80    77    88    81
 C    -3.00140  -3.36040  -0.45410    81    82    97    80
 C    -1.82840  -4.09440  -0.50470    82    79    19    81
 C    -2.37670  -0.15830   3.72640    83    93    64    85
 C    -4.05520  -0.85540   2.12300    84    91    85    88
 C    -3.08450  -1.17500   3.10100    85    86    83    84
 C    -2.36750  -2.31860   2.96700    86    85    77    67
 C    -4.57520  -1.08930  -0.21550    87   100    89    88
 C    -4.21330  -1.70870   0.97810    88    87    80    84
 C    -4.75400   0.28020  -0.32250    89    90    96    87
 C    -4.57540   1.07010   0.73430    90    89    91    34
 C    -4.25530   0.52620   1.93600    91    90    92    84
 C    -3.53450   1.49040   2.57990    92    93    91    47
 C    -2.60160   1.14840   3.45550    93    92    83    50
 C    -3.12450  -0.34680  -3.20300    94    95    29    99
 C    -4.04840  -0.41160  -2.24140    95    94    96   100
 C    -4.38730   0.71890  -1.55630    96    89    95    32
 C    -3.29130  -2.62590  -1.63060    97   100    81    98
 C    -2.32090  -2.55290  -2.70720    98    99    17    97
 C    -2.27090  -1.37470  -3.43350    99    94    98    12
 C    -4.12620  -1.52680  -1.44760   100    95    87    97
