   100
C100-C1-327                                                                     
 C     3.51560   1.59850   2.38060     1     2     8    66
 C     3.84480   0.28210   2.44270     2     1     3     7
 C     4.62150  -0.15330   1.35460     3     4    65     2
 C     4.52460  -1.42820   0.91000     4     5     3    32
 C     3.75590  -2.28290   1.56630     5     4    11     6
 C     2.97960  -1.88890   2.64770     6    14     7     5
 C     2.91870  -0.58760   3.10010     7     6     2    22
 C     2.36470   2.04970   2.96130     8     1    71     9
 C     1.38490   1.24820   3.59230     9     8    22    21
 C     1.06540  -4.22490   1.15820    10    12    15    28
 C     3.13330  -3.28650   0.89800    11    12     5    30
 C     2.09170  -3.62080   1.67990    12    10    11    14
 C     0.67380  -2.40440   3.26190    13    14    19    26
 C     1.92290  -2.73410   2.72490    14     6    12    13
 C    -0.14460  -4.09020   1.72400    15    10    42    19
 C    -3.14560  -0.79220   2.93270    16    27    96    17
 C    -1.95270  -1.39730   3.37130    17    16    18    25
 C    -1.72420  -2.70480   2.85730    18    19    46    17
 C    -0.41590  -3.18690   2.78970    19    18    13    15
 C    -0.13790   2.99860   2.94860    20    98    70    21
 C     0.05320   1.75900   3.60750    21    20    24     9
 C     1.64400  -0.14960   3.65430    22     9     7    26
 C    -2.34860   1.44890   3.22200    23    27   100    24
 C    -1.08840   0.91230   3.71310    24    21    23    25
 C    -0.86460  -0.53020   3.78130    25    17    26    24
 C     0.49450  -1.05250   3.74000    26    13    25    22
 C    -3.33270   0.54940   2.85430    27    16    23    94
 C     0.96010  -4.38860  -0.20910    28    34    10    29
 C     1.91060  -3.89840  -1.08310    29    28    37    30
 C     3.12220  -3.39090  -0.51360    30    31    11    29
 C     3.87750  -2.41810  -1.17900    31    33    32    30
 C     4.62270  -1.48220  -0.45370    32     4    49    31
 C     3.34760  -1.92380  -2.35270    33    47    31    38
 C    -0.37090  -4.44590  -0.46710    34    28    42    35
 C    -0.94810  -3.96380  -1.64020    35    34    44    36
 C    -0.04510  -3.33310  -2.56300    36    35    37    40
 C     1.36840  -3.35150  -2.28840    37    38    29    36
 C     2.13480  -2.35060  -2.85870    38    33    37    58
 C    -1.92890  -1.93110  -3.18870    39    59    45    40
 C    -0.58240  -2.23790  -3.35120    40    39    57    36
 C    -2.25680  -3.95640   0.83700    41    42    43    46
 C    -1.02890  -4.38020   0.74060    42    41    15    34
 C    -2.95300  -3.61200  -0.28060    43    41    87    44
 C    -2.30350  -3.57380  -1.51870    44    45    43    35
 C    -2.77860  -2.57480  -2.31820    45    44    39    90
 C    -2.64590  -3.19410   1.89570    46    97    41    18
 C     3.54620  -0.62130  -2.75820    47    48    51    33
 C     4.30800   0.26680  -2.03700    48    47    50    49
 C     4.85060  -0.18720  -0.85590    49    32    48    65
 C     3.87630   1.57350  -2.07770    50    63    48    54
 C     2.43960  -0.23260  -3.48130    51    58    47    53
 C     0.62610   1.33030  -3.74220    52    53    56    61
 C     1.99060   1.07320  -3.52760    53    51    54    52
 C     2.75690   1.96450  -2.79740    54    73    53    50
 C    -1.26450   2.63020  -3.02760    55    56    62    74
 C     0.09720   2.56400  -3.19130    56    55    72    52
 C     0.23830  -1.15550  -3.80680    57    58    40    61
 C     1.58250  -1.29900  -3.57060    58    51    57    38
 C    -2.44920  -0.67700  -3.39500    59    39    60    84
 C    -1.64240   0.38550  -3.75290    60    62    59    61
 C    -0.26650   0.19490  -3.95940    61    60    57    52
 C    -2.12300   1.59880  -3.32970    62    60    55    86
 C     3.99420   2.41360  -0.99760    63    50    64    67
 C     4.49680   1.93940   0.20170    64    65    66    63
 C     4.90670   0.63980   0.25520    65    64     3    49
 C     3.84510   2.42710   1.30180    66    69    64     1
 C     2.96770   3.33910  -1.07720    67    68    73    63
 C     2.38370   3.91320   0.02150    68    67    69    77
 C     2.87920   3.38510   1.22240    69    71    66    68
 C     0.83770   3.64360   2.25340    70    71    20    78
 C     2.05950   3.19620   2.28220    71    70    69     8
 C     0.87190   3.41820  -2.33210    72    73    56    76
 C     2.20490   3.07180  -2.19720    73    54    67    72
 C    -1.87730   3.41170  -2.07250    74    79    55    75
 C    -1.16410   4.12120  -1.11210    75    74    82    76
 C     0.25750   4.15080  -1.24150    76    75    77    72
 C     1.04430   4.33310  -0.05010    77    78    68    76
 C     0.32610   4.27170   1.14810    78    83    70    77
 C    -3.11580   2.86070  -1.84570    79    80    86    74
 C    -3.70540   2.94530  -0.64900    80    79    81    91
 C    -3.03790   3.57000   0.35880    81    80    82    99
 C    -1.81090   4.17800   0.15810    82    83    81    75
 C    -1.00840   4.16370   1.25680    83    78    82    98
 C    -3.61290  -0.54470  -2.63750    84    90    85    59
 C    -4.06540   0.66860  -2.16890    85    84    86    92
 C    -3.28360   1.73720  -2.59150    86    79    62    85
 C    -3.92680  -2.72130   0.10540    87    43    97    89
 C    -4.82380  -0.48700  -0.14550    88    89    95    92
 C    -4.41710  -1.71890  -0.71590    89    90    87    88
 C    -3.80700  -1.70800  -1.95810    90    84    89    45
 C    -4.46120   1.90530  -0.17550    91    93    80    92
 C    -4.69010   0.72210  -0.89400    92    91    85    88
 C    -4.25440   1.92090   1.17780    93    94    99    91
 C    -4.27400   0.78330   1.85710    94    93    95    27
 C    -4.60850  -0.38020   1.25190    95    94    96    88
 C    -4.00550  -1.35060   1.99040    96    97    95    16
 C    -3.71990  -2.51190   1.45360    97    96    46    87
 C    -1.30940   3.40800   2.39790    98   100    20    83
 C    -3.36560   2.88730   1.51980    99    93    81   100
 C    -2.44370   2.69650   2.54190   100    98    99    23
