   100
C100-C1-236                                                                     
 C    -4.02040   2.37290  -0.28940     1    64     4     2
 C    -4.52840   1.09230  -0.47550     2     1    58     3
 C    -4.69040   0.27150   0.69760     3     6    14     2
 C    -3.62620   2.85760   0.94330     4     5     7     1
 C    -3.64580   2.04650   1.98640     5     4     6     8
 C    -4.17890   0.81730   1.89100     6     5    16     3
 C    -2.64560   3.77470   0.81640     7     4    67    10
 C    -2.58050   2.05500   2.87000     8    19     9     5
 C    -1.51930   2.92440   2.77250     9     8    28    10
 C    -1.57580   3.90480   1.72510    10    12     7     9
 C     0.78880   4.02700   1.77610    11   100    12    27
 C    -0.39440   4.42500   1.20240    12    11    10    13
 C    -0.29760   4.68380  -0.17290    13    66    97    12
 C    -4.62170  -1.13270   0.59360    14    15    18     3
 C    -4.43100  -1.68990  -0.65010    15    14    60    34
 C    -3.50560   0.07490   2.81510    16    17     6    19
 C    -3.41840  -1.22400   2.67950    17    16    18    24
 C    -4.00730  -1.85550   1.62780    18    17    32    14
 C    -2.46430   0.78680   3.36220    19     8    16    22
 C     2.43370  -1.58650   3.04220    20    40    96    25
 C     0.08850  -1.87360   3.47050    21    23    25    37
 C    -1.25100   0.19930   3.75960    22    19    29    23
 C    -1.16450  -1.22490   3.62330    23    24    21    22
 C    -2.29160  -1.87800   3.09450    24    36    17    23
 C     1.25990  -1.04160   3.55270    25    20    21    30
 C     2.33630   1.16490   3.13800    26    31    95    30
 C     0.84400   3.04340   2.75610    27    31    28    11
 C    -0.27610   2.40950   3.25940    28    27     9    29
 C    -0.09870   1.03910   3.72370    29    22    30    28
 C     1.19970   0.40450   3.64540    30    29    25    26
 C     2.08610   2.45960   2.70400    31    27    91    26
 C    -3.29010  -3.00380   1.45200    32    18    33    36
 C    -3.16310  -3.56970   0.21530    33    35    32    34
 C    -3.72640  -2.87870  -0.83030    34    33    44    15
 C    -1.99370  -4.22200  -0.01720    35    33    39    42
 C    -2.23760  -3.02960   2.36810    36    24    38    32
 C     0.13970  -3.15520   2.73680    37    41    38    21
 C    -1.05320  -3.67060   2.15230    38    36    39    37
 C    -0.99300  -4.33790   0.92700    39    55    35    38
 C     2.48470  -2.80320   2.37590    40    57    41    20
 C     1.36110  -3.56170   2.12930    41    40    37    54
 C    -1.37250  -4.17830  -1.25700    42    47    43    35
 C    -1.84490  -3.41800  -2.29530    43    42    44    51
 C    -3.07490  -2.81140  -2.04290    44    45    34    43
 C    -3.40680  -1.61700  -2.57880    45    46    44    60
 C    -2.52570  -0.99250  -3.35490    46    45    61    52
 C    -0.04720  -4.37310  -1.07420    47    42    49    55
 C     2.14410  -3.75120  -1.36670    48    49    68    53
 C     0.91060  -3.83520  -1.92470    49    48    47    50
 C     0.52160  -2.91560  -2.94230    50    51    49    70
 C    -0.88220  -2.74990  -3.11030    51    52    50    43
 C    -1.29190  -1.53080  -3.61390    52    72    46    51
 C     2.39170  -4.02390  -0.01000    53    56    54    48
 C     1.36110  -4.25960   0.87600    54    55    53    41
 C     0.18040  -4.53680   0.29360    55    54    39    47
 C     3.48970  -3.34040   0.32220    56    53    84    57
 C     3.57000  -2.75960   1.54710    57    88    56    40
 C    -4.21970   0.49680  -1.72910    58    60     2    59
 C    -3.31410   1.16670  -2.64210    59    61    63    58
 C    -4.22940  -0.89490  -1.75590    60    45    15    58
 C    -2.47280   0.35610  -3.40390    61    46    73    59
 C    -1.48020   2.83110  -2.86390    62    65    76    63
 C    -2.79380   2.44440  -2.38950    63    64    59    62
 C    -3.24050   3.04260  -1.20830    64    67     1    63
 C    -0.82570   3.82600  -2.15340    65    82    66    62
 C    -1.32620   4.36600  -0.99990    66    67    13    65
 C    -2.48400   3.95610  -0.52720    67    66     7    64
 C     3.07250  -2.83370  -1.78390    68    84    48    69
 C     2.76230  -1.81940  -2.71490    69    68    77    70
 C     1.45770  -1.83510  -3.29710    70    69    71    50
 C     0.93180  -0.56370  -3.74780    71    72    74    70
 C    -0.44610  -0.48740  -3.88740    72    52    71    73
 C    -1.18630   0.68500  -3.78340    73    76    61    72
 C     1.60690   0.69400  -3.56710    74    78    71    75
 C     0.81740   1.93490  -3.45900    75    81    76    74
 C    -0.61850   1.90040  -3.53430    76    73    62    75
 C     3.49050  -0.60030  -2.56670    77    86    78    69
 C     2.90850   0.63470  -2.97920    78    79    77    74
 C     3.34640   1.77910  -2.29510    79    80    87    78
 C     2.60330   2.90840  -2.15730    80    79    81    98
 C     1.36580   3.03210  -2.73570    81    80    82    75
 C     0.53140   3.92810  -2.09010    82    65    81    97
 C     4.62100  -1.53520  -0.59910    83    84    86    90
 C     3.96410  -2.67430  -0.75960    84    83    56    68
 C     4.68800   0.61110  -0.79240    85    87    86    89
 C     4.42580  -0.53260  -1.49320    86    83    85    77
 C     4.18000   1.74320  -1.20550    87    85    92    79
 C     4.21230  -1.58840   1.69690    88    57    90    96
 C     4.81970   0.33950   0.55700    89    90    85    94
 C     4.81300  -0.99140   0.64920    90    89    88    83
 C     2.80870   3.08410   1.69850    91    93   100    31
 C     3.85680   2.71720  -0.32530    92    87    98    93
 C     3.83460   2.44450   1.05290    93    91    94    92
 C     4.24370   1.19460   1.51580    94    93    89    95
 C     3.49390   0.55220   2.57520    95    96    26    94
 C     3.51420  -0.82970   2.60500    96    88    95    20
 C     0.86560   4.52180  -0.86960    97    99    13    82
 C     2.94440   3.51970  -0.94530    98    99    92    80
 C     2.04210   4.25550  -0.25380    99    98    97   100
 C     1.98390   4.00610   1.10160   100    11    91    99
