   100
C100-C2-149                                                                     
 C     5.13720  -0.29080   0.29970     1     5    65    20
 C     2.60070  -2.60230   2.40140     2     3    72     6
 C     3.73780  -2.10230   1.83910     3     2     4    63
 C     4.10970  -0.84580   2.32390     4     5     3     8
 C     4.80990   0.04180   1.57460     5     4     1    21
 C     1.85030  -1.90290   3.33950     6    12     7     2
 C     2.10850  -0.59650   3.69830     7     8     6     9
 C     3.27660  -0.10560   3.17670     8     7    22     4
 C     1.00510   0.25370   3.99180     9     7    10    15
 C     1.18380   1.62760   3.58990    10    11    25     9
 C     0.02140   2.30670   3.31880    11    10    17    30
 C     0.59740  -2.39850   3.34180    12     6    14    77
 C    -1.67820  -2.13700   3.28290    13    96    14    78
 C    -0.48400  -1.67260   3.76220    14    13    12    15
 C    -0.33560  -0.29430   4.07950    15    14    16     9
 C    -1.50870   0.50990   3.88270    16    17    97    15
 C    -1.24830   1.81430   3.49700    17    92    11    16
 C     4.63600   1.92110  -0.33630    18    20    28    19
 C     4.31520   2.23420   0.94970    19    21    18    23
 C     5.04380   0.67420  -0.67960    20    18    36     1
 C     4.39450   1.29620   1.90730    21    19    22     5
 C     3.42850   1.22640   2.86430    22    21     8    25
 C     3.26170   3.10370   0.95150    23    19    29    24
 C     2.26930   3.13060   1.92950    24    23    31    25
 C     2.35920   2.11440   2.96000    25    22    10    24
 C     2.11140   2.47630  -2.75890    26    27    41    34
 C     3.34560   2.04170  -2.35890    27    26    28    35
 C     3.78770   2.58950  -1.15870    28    18    27    29
 C     2.95940   3.38080  -0.36630    29    33    23    28
 C    -0.04750   3.29480   2.34390    30    57    31    11
 C     1.01380   3.65810   1.54940    31    30    24    32
 C     0.68290   4.01630   0.18460    32    33    59    31
 C     1.70810   3.78030  -0.75580    33    29    34    32
 C     1.33840   3.35860  -2.01670    34    61    33    26
 C     3.71770   0.73060  -2.73140    35    36    27    38
 C     4.59410   0.08920  -1.82920    36    20    37    35
 C     4.49100  -1.24750  -1.54510    37    40    36    65
 C     2.76640  -0.06350  -3.45040    38    39    42    35
 C     2.78720  -1.42380  -3.13640    39    45    40    38
 C     3.59140  -1.97890  -2.17810    40    37    66    39
 C     1.23640   1.74440  -3.52280    41    47    26    42
 C     1.49780   0.43260  -3.87920    42    41    38    43
 C     0.32990  -0.38090  -4.05780    43    44    42    49
 C     0.48040  -1.75150  -3.71140    44    46    45    43
 C     1.67590  -2.20310  -3.21890    45    39    44    67
 C    -0.59900  -2.47260  -3.27890    46    52    44    68
 C    -0.03090   2.24550  -3.35780    47    48    41    61
 C    -1.18780   1.55340  -3.61170    48    47    55    49
 C    -1.01170   0.17110  -3.98400    49    51    48    43
 C    -3.28260  -0.18460  -3.17290    50    51    56    84
 C    -2.10760  -0.68190  -3.68080    51    50    52    49
 C    -1.85370  -1.98300  -3.29450    52    46    51    86
 C    -3.26080   3.06730  -0.98770    53    89    62    54
 C    -2.27330   3.07720  -1.97360    54    53    60    55
 C    -2.36590   2.03770  -2.98470    55    56    48    54
 C    -3.43450   1.15170  -2.86500    56    90    50    55
 C    -1.34870   3.40020   1.96240    57    30    58    92
 C    -1.71410   3.79340   0.69010    58    62    57    59
 C    -0.69360   4.00740  -0.25690    59    58    32    60
 C    -1.01800   3.61900  -1.61410    60    61    54    59
 C     0.04180   3.24880  -2.40070    61    34    60    47
 C    -2.96840   3.37450   0.32330    62    58    53    94
 C     4.02120  -2.46540   0.50190    63    65     3    64
 C     3.06450  -3.28120  -0.19680    64    66    71    63
 C     4.75160  -1.49750  -0.21970    65     1    37    63
 C     2.92400  -2.99860  -1.55610    66    67    40    64
 C     1.76070  -3.19140  -2.22850    67    66    69    45
 C    -0.52310  -3.43820  -2.27990    68    73    69    46
 C     0.65070  -3.76200  -1.66010    69    68    67    70
 C     0.65360  -4.08280  -0.28360    70    69    71    75
 C     1.88680  -3.80430   0.42490    71    72    64    70
 C     1.73770  -3.45550   1.75510    72    77     2    71
 C    -1.74440  -3.49220  -1.67780    73    68    86    74
 C    -1.87870  -3.81010  -0.33500    74    73    80    75
 C    -0.64500  -4.07020   0.38010    75    76    74    70
 C    -0.65280  -3.71560   1.74900    76    77    78    75
 C     0.52250  -3.38390   2.36030    77    72    76    12
 C    -1.76500  -3.13390   2.29930    78    81    76    13
 C    -4.01160  -2.46910  -0.44890    79    82    85    80
 C    -3.05640  -3.26470   0.27450    80    81    74    79
 C    -2.92740  -2.95270   1.62450    81    78    95    80
 C    -4.73640  -1.47750   0.25300    82    87    98    79
 C    -4.81330  -0.00960  -1.57310    83    84    87    90
 C    -4.12040  -0.90970  -2.31180    84    83    85    50
 C    -3.74040  -2.15020  -1.80110    85    86    84    79
 C    -2.61150  -2.66450  -2.35250    86    85    73    52
 C    -5.14070  -0.28500  -0.28490    87    83    82    91
 C    -4.64810   1.92810   0.31630    88    91    94    89
 C    -4.31950   2.20530  -0.97700    89    90    88    53
 C    -4.40370   1.24810  -1.91280    90    89    56    83
 C    -5.06250   0.68960   0.68260    91    88    99    87
 C    -2.12380   2.53870   2.72810    92    93    17    57
 C    -3.35850   2.09280   2.34600    93    92    94   100
 C    -3.80600   2.61200   1.13660    94    88    93    62
 C    -3.59460  -1.92550   2.23060    95    98    81    96
 C    -2.79040  -1.36070   3.18690    96    13    95    97
 C    -2.78070   0.00650   3.46690    97    96    16   100
 C    -4.48770  -1.20110   1.57760    98    95    99    82
 C    -4.61520   0.13670   1.85050    99    91    98   100
 C    -3.73700   0.78820   2.73830   100    99    93    97
