   100
C100-C1-49                                                                      
 C    -3.43840   2.08480  -2.23680     1    63     4     2
 C    -4.30650   1.37200  -1.41620     2     1    57     3
 C    -4.47540  -0.02080  -1.73510     3     6     8     2
 C    -2.71510   1.49740  -3.26180     4     5     7     1
 C    -2.81920   0.21790  -3.50540     5     4     6    20
 C    -3.70200  -0.52850  -2.80120     6     5    10     3
 C    -1.52430   2.10170  -3.45930     7     4    66    18
 C    -4.73270  -0.94230  -0.69050     8     9    12     3
 C    -4.86360  -0.46940   0.58530     9     8    59    27
 C    -3.17180  -1.77440  -2.84580    10    11     6    21
 C    -3.42210  -2.61100  -1.84310    11    10    14    12
 C    -4.17190  -2.21700  -0.77600    12    11    25     8
 C    -0.26450  -4.03270  -1.37870    13    15   100    31
 C    -2.46900  -3.48850  -1.48480    14    11    15    30
 C    -1.25420  -3.55770  -2.14540    15    13    14    24
 C     0.75320   3.19380  -2.66900    16    79    65    17
 C     0.88910   2.02770  -3.45590    17    18    16    93
 C    -0.32770   1.44010  -3.85000    18    17    19     7
 C    -0.40430   0.03750  -4.03310    19    20    18    22
 C    -1.69420  -0.50190  -3.88100    20    21     5    19
 C    -1.93440  -1.77190  -3.47290    21    20    24    10
 C     0.73540  -0.80880  -3.80060    22    19    94    23
 C     0.46110  -2.18690  -3.37180    23    99    24    22
 C    -0.90230  -2.62980  -3.16900    24    21    15    23
 C    -3.65030  -2.90480   0.31210    25    30    26    12
 C    -3.68450  -2.40650   1.58420    26    25    27    34
 C    -4.39410  -1.20250   1.69220    27    28    26     9
 C    -4.08680  -0.30960   2.64960    28    27    29    38
 C    -3.04400  -0.55440   3.47000    29    28    39    35
 C    -2.60710  -3.67550  -0.11150    30    25    32    14
 C    -0.39220  -4.23460   0.00430    31    55    32    13
 C    -1.53110  -3.96910   0.69950    32    31    30    33
 C    -1.42180  -3.41670   2.00840    33    32    34    54
 C    -2.54830  -2.65360   2.43640    34    35    33    26
 C    -2.27170  -1.66860   3.36450    35    29    34    48
 C    -3.48190   1.93210   2.55630    36    38    37    60
 C    -2.46130   1.69680   3.41650    37    39    46    36
 C    -4.30670   0.94520   2.16290    38    36    59    28
 C    -2.23860   0.45540   3.86000    39    37    29    40
 C    -0.97370   0.01170   4.04070    40    39    48    44
 C     2.45230   0.96530   3.24670    41    42    43    73
 C     3.58710   0.30260   2.76740    42    82    53    41
 C     1.37740   0.15450   3.70850    43    44    41    52
 C     0.14720   0.82100   3.90190    44    40    43    45
 C    -0.09020   2.17140   3.43080    45    46    74    44
 C    -1.41970   2.51110   3.15880    46    37    67    45
 C     0.14440  -2.02580   3.40370    47    48    52    54
 C    -0.98560  -1.34520   3.76810    48    47    40    35
 C     3.28610  -3.12280   0.93350    49    86    91    50
 C     2.35790  -3.02680   2.00040    50    56    49    51
 C     2.52900  -1.88240   2.84090    51    53    52    50
 C     1.39790  -1.31370   3.48200    52    51    47    43
 C     3.63290  -1.06520   2.57400    53    42    87    51
 C    -0.06760  -3.15870   2.53180    54    56    47    33
 C     0.83110  -4.11790   0.54230    55    31    89    56
 C     1.07500  -3.58730   1.81250    56    55    50    54
 C    -4.39530   1.84620  -0.07530    57    59     2    58
 C    -3.52800   2.93500   0.36550    58    60    62    57
 C    -4.74670   0.88220   0.87820    59    38     9    57
 C    -3.08690   2.90170   1.69400    60    36    67    58
 C    -1.35800   4.09870  -0.03870    61    64    69    62
 C    -2.62670   3.57890  -0.50230    62    63    58    61
 C    -2.66390   3.13560  -1.82190    63    66     1    62
 C    -0.33500   4.16780  -0.97330    64    72    65    61
 C    -0.44220   3.68130  -2.23680    65    66    64    16
 C    -1.56360   3.16840  -2.63240    66    65     7    63
 C    -1.82040   3.32060   2.10960    67    69    46    60
 C     0.48860   3.76970   1.64800    68    71    69    74
 C    -0.90240   3.91140   1.29970    69    67    61    68
 C     2.68970   3.49140   0.70460    70    71    75    77
 C     1.42670   3.97800   0.61510    71    70    72    68
 C     0.97920   4.12340  -0.67340    72    64    71    79
 C     2.20960   2.30770   2.74480    73    75    74    41
 C     0.90800   2.87090   2.73260    74    45    73    68
 C     3.11700   2.74100   1.76810    75    83    70    73
 C     4.38610   2.25440   0.01360    76    77    80    83
 C     3.44300   3.10150  -0.40920    77    76    78    70
 C     2.86900   2.98940  -1.66870    78    79    77    92
 C     1.67210   3.58090  -1.75940    79    78    16    72
 C     4.79450   1.25250  -0.79240    80    76    84    95
 C     5.04210  -0.11240   1.11930    81    82    87    84
 C     4.48950   0.85930   1.88290    82    83    81    42
 C     4.20740   2.04770   1.35830    83    82    75    76
 C     5.17920   0.07710  -0.24690    84    80    88    81
 C     4.43720  -2.07750  -0.64500    85    88    90    86
 C     4.32410  -2.29190   0.71660    86    87    49    85
 C     4.55730  -1.29420   1.56790    87    86    81    53
 C     4.80160  -0.88750  -1.12330    88    85    84    96
 C     1.69550  -3.97300  -0.49760    89    91   100    55
 C     3.48240  -2.76510  -1.29910    90    85    91    98
 C     2.88330  -3.50120  -0.31810    91    89    90    49
 C     3.13260   1.83930  -2.47720    92    95    78    93
 C     2.08680   1.26940  -3.30680    93    17    92    94
 C     2.02020  -0.18990  -3.49010    94    97    22    93
 C     4.12230   1.01260  -1.98600    95    96    92    80
 C     4.10100  -0.34440  -2.19110    96    95    88    97
 C     3.04830  -0.98950  -2.87290    97    96    98    94
 C     2.75630  -2.31610  -2.43590    98    99    90    97
 C     1.47730  -2.86560  -2.64520    99    98   100    23
 C     1.02680  -3.77110  -1.66170   100    13    89    99
