   100
C100-C1-352                                                                     
 C     4.53000  -1.71760   0.40020     1     2     7    57
 C     4.20670  -2.10520  -0.87890     2     4     3     1
 C     4.16830  -1.12690  -1.84200     3    56     2    10
 C     3.27540  -3.09520  -0.98340     4     2     8     5
 C     2.66550  -3.68180   0.11040     5    24     6     4
 C     2.89770  -3.25250   1.39870     6     5     7    21
 C     3.87560  -2.26360   1.49170     7    62     1     6
 C     2.36240  -3.13540  -2.02100     8    14     4     9
 C     2.26100  -2.13240  -2.97900     9    10     8    11
 C     3.20210  -1.13020  -2.84230    10    27     9     3
 C     0.99590  -1.84710  -3.55480    11     9    12    17
 C     0.77140  -0.46970  -3.94940    12    13    26    11
 C    -0.54230  -0.06830  -4.03390    13    19    12    28
 C     1.27920  -3.84250  -1.61830    14     8    16    24
 C    -0.99110  -4.05110  -1.38290    15    45    16    25
 C     0.05690  -3.68970  -2.20450    16    14    15    17
 C    -0.13980  -2.69450  -3.20990    17    18    16    11
 C    -1.47090  -2.21200  -3.35440    18    19    17    46
 C    -1.60250  -0.90220  -3.79030    19    40    13    18
 C     1.77780  -2.20440   3.20400    20    95    61    21
 C     1.78790  -3.26230   2.29210    21    20     6    22
 C     0.51070  -3.78950   1.93350    22    21    23    97
 C     0.39350  -4.29550   0.59990    23    25    24    22
 C     1.45760  -4.16140  -0.26730    24     5    23    14
 C    -0.82570  -4.31870  -0.01850    25   100    23    15
 C     1.72180   0.57580  -3.71240    26    27    12    30
 C     2.94170   0.17710  -3.18500    27    10    49    26
 C    -0.96660   1.23820  -3.81660    28    29    41    13
 C    -0.10190   2.25130  -3.47980    29    28    34    30
 C     1.30570   1.94110  -3.44930    30    31    29    26
 C     2.16160   2.74440  -2.62040    31    32    48    30
 C     1.53070   3.71120  -1.85330    32    35    50    31
 C    -2.06440   3.18210  -2.20920    33    36    44    34
 C    -0.70180   3.27270  -2.68240    34    35    29    33
 C     0.19330   3.95740  -1.88170    35    32    38    34
 C    -2.34420   3.73260  -0.95730    36    37    90    33
 C    -1.36370   4.30600  -0.19290    37    38    74    36
 C    -0.14210   4.43780  -0.64330    38    37    53    35
 C    -3.65480  -0.56450  -2.70150    39    40    47    42
 C    -2.66410  -0.10660  -3.46270    40    39    41    19
 C    -2.29320   1.19580  -3.42000    41    40    28    44
 C    -4.28800   0.25960  -1.80850    42    39    85    43
 C    -3.94170   1.61020  -1.68660    43    42    89    44
 C    -2.90430   2.11220  -2.56440    44    41    33    43
 C    -2.25280  -3.58500  -1.55830    45    15    46    91
 C    -2.55210  -2.68370  -2.55290    46    45    47    18
 C    -3.62050  -1.84190  -2.24660    47    39    94    46
 C     3.37040   2.24630  -2.08220    48    49    52    31
 C     3.75220   0.97350  -2.40650    49    48    27    56
 C     1.95570   4.04080  -0.58000    50    51    53    32
 C     3.01480   3.47050  -0.05340    51    50    52    64
 C     3.77790   2.63630  -0.79600    52    51    54    48
 C     0.91540   4.38180   0.20430    53    50    38    73
 C     4.43280   1.81240   0.08090    54    55    52    58
 C     4.85000   0.56330  -0.28050    55    54    57    56
 C     4.50050   0.17180  -1.56280    56     3    49    55
 C     4.82470  -0.39610   0.69780    57    55    60     1
 C     3.92180   2.09090   1.35840    58    64    59    54
 C     3.79470   1.12310   2.31640    59    58    60    69
 C     4.32280  -0.12020   1.95770    60    62    57    59
 C     2.73980  -1.23080   3.23100    61    62    20    72
 C     3.78590  -1.27380   2.41610    62    61    60     7
 C     1.89650   3.27780   2.10670    63    64    73    68
 C     3.02140   3.11250   1.27470    64    58    51    63
 C    -2.04470   2.30910   3.06170    65    77    84    66
 C    -0.74710   2.84020   3.03070    66    65    75    67
 C     0.30380   2.00770   3.53670    67    66    68    70
 C     1.67120   2.25510   3.09480    68    63    69    67
 C     2.65090   1.19790   3.17370    69    72    59    68
 C    -0.07490   0.66820   3.98020    70    71    78    67
 C     0.89830  -0.29880   3.96190    71    72    70    95
 C     2.18870  -0.03930   3.62190    72    71    61    69
 C     0.80480   4.00990   1.56740    73    75    53    63
 C    -1.56280   4.07180   1.13090    74    82    37    75
 C    -0.50320   3.82350   2.03540    75    73    74    66
 C    -3.50660   0.67290   2.85010    76    79    83    77
 C    -2.35420   1.05060   3.49160    77    65    76    78
 C    -1.39500   0.15210   3.91450    78    77    70    81
 C    -3.75710  -0.60460   2.61580    79    76    86    80
 C    -2.85870  -1.55070   3.02390    80    79    98    81
 C    -1.66250  -1.24870   3.66720    81    80    96    78
 C    -2.77160   3.47010   1.17220    82    84    74    90
 C    -3.91110   1.61810   1.95550    83    84    76    88
 C    -3.04120   2.63560   2.15290    84    82    83    65
 C    -4.70580  -0.54550  -0.77000    85    87    42    94
 C    -4.41570  -0.98800   1.49080    86    79    92    87
 C    -4.79190  -0.05170   0.51250    87    85    86    88
 C    -4.50870   1.31500   0.71360    88    87    83    89
 C    -4.11060   2.15590  -0.38280    89    90    43    88
 C    -3.28350   3.23150  -0.09310    90    36    82    89
 C    -2.89540  -3.58670  -0.33100    91    93   100    45
 C    -3.96850  -2.26130   1.22730    92    93    86    98
 C    -3.92150  -2.72240  -0.05880    93    92    91    94
 C    -4.29550  -1.84960  -1.04640    94    93    47    85
 C     0.63810  -1.65700   3.71720    95    20    96    71
 C    -0.60920  -2.17220   3.47620    96    95    81    97
 C    -0.70440  -3.30000   2.57080    97    99    96    22
 C    -2.99960  -2.61300   2.17070    98    80    99    92
 C    -1.95020  -3.47180   1.90570    99    98   100    97
 C    -1.97270  -3.98190   0.61920   100    25    91    99
