   100
C100-C1-246                                                                     
 C     1.73360   3.56090   1.95510     1     6     2    65
 C     2.58190   3.64780   0.90170     2     1     3     9
 C     3.66730   2.79560   0.99390     3     4     2    64
 C     4.31720   2.35270  -0.10260     4     3    18     5
 C     3.78060   2.63550  -1.31820     5    19     4    10
 C     0.44480   3.95240   1.86770     6     1    74     7
 C    -0.18180   4.37120   0.68920     7     6    14     8
 C     0.62390   4.27230  -0.49550     8     9     7    12
 C     2.00800   3.97670  -0.36550     9    10     8     2
 C     2.64280   3.37470  -1.44040    10     5     9    28
 C    -1.43210   3.74590  -1.65780    11    29    12    13
 C    -0.05820   3.85800  -1.70840    12    11    27     8
 C    -2.18930   3.95950  -0.52370    13    14    11   100
 C    -1.57840   4.20280   0.67630    14    13    15     7
 C    -2.23440   3.58500   1.74820    15    77    97    14
 C     4.93460   0.22930  -0.83710    16    18    34    17
 C     4.36280   0.50560  -2.06110    17    19    26    16
 C     4.85520   1.13440   0.15060    18    16     4    43
 C     3.77760   1.68670  -2.28200    19    17     5    20
 C     2.62500   1.76880  -3.00250    20    19    28    24
 C    -0.16820  -0.46500  -3.86730    21    22    37    23
 C    -1.54210  -0.34820  -3.74970    22    54    32    21
 C     0.59590   0.76590  -3.79700    23    24    21    31
 C     1.98340   0.65370  -3.56050    24    20    23    25
 C     2.59680  -0.61640  -3.33050    25    26    36    24
 C     3.79480  -0.60970  -2.56950    26    17    35    25
 C     0.60250   3.03800  -2.69020    27    28    12    31
 C     1.94040   2.87110  -2.52640    28    27    20    10
 C    -2.14070   2.89590  -2.46860    29    11    93    30
 C    -1.49940   2.00310  -3.31730    30    32    29    31
 C    -0.10250   2.01570  -3.43890    31    30    27    23
 C    -2.19790   0.84020  -3.52450    32    30    22    96
 C     3.35620  -2.65570  -1.62730    33    35    39    38
 C     4.74270  -1.07910  -0.56430    34    16    35    41
 C     4.13070  -1.59670  -1.68870    35    33    26    34
 C     1.78540  -1.78240  -3.26590    36    38    37    25
 C     0.39510  -1.75780  -3.52950    37    36    21    56
 C     2.24100  -2.79700  -2.40820    38    58    33    36
 C     3.19240  -3.30030  -0.44780    39    33    45    40
 C     3.68490  -2.75100   0.74720    40    44    41    39
 C     4.43160  -1.56570   0.72130    41    40    34    42
 C     4.22870  -0.58230   1.76280    42    43    61    41
 C     4.47730   0.74420   1.41150    43    64    18    42
 C     2.85450  -2.99100   1.80180    44    40    47    60
 C     2.01240  -4.00050  -0.55470    45    46    39    58
 C     1.25650  -4.33390   0.52670    46    45    52    47
 C     1.73720  -3.78110   1.71480    47    49    44    46
 C    -0.40220  -3.58140   2.55980    48    49    53    69
 C     0.88880  -3.35750   2.67520    49    48    47    68
 C    -2.05880  -3.92570  -0.91950    50    59    85    51
 C    -0.71730  -4.27050  -0.92640    51    50    57    52
 C    -0.11650  -4.51380   0.35470    52    46    53    51
 C    -0.91740  -4.20760   1.46550    53    86    48    52
 C    -2.36880  -1.35340  -3.30730    54    55    22    89
 C    -1.86230  -2.55480  -2.87180    55    54    59    56
 C    -0.47490  -2.80140  -2.95600    56    55    57    37
 C     0.07010  -3.74560  -2.00240    57    58    51    56
 C     1.41900  -3.68580  -1.77510    58    38    57    45
 C    -2.63490  -3.13810  -1.87110    59    50    55    92
 C     2.62520  -2.02440   2.77970    60    61    68    44
 C     3.23100  -0.79020   2.77850    61    60    42    62
 C     2.44800   0.27980   3.36240    62    63    61    72
 C     2.78920   1.58140   2.90610    63    65    64    62
 C     3.76850   1.78350   1.96010    64    43    63     3
 C     1.82240   2.54720   2.92340    65    66    63     1
 C     0.57630   2.33170   3.41290    66    65    74    67
 C     0.11380   1.09440   3.87900    67    66    72    76
 C     1.36400  -2.24430   3.29340    68    49    60    71
 C    -1.29800  -2.68580   3.08140    69    48    78    70
 C    -0.91130  -1.49110   3.69310    70    69    75    71
 C     0.51520  -1.25730   3.80630    71    68    72    70
 C     1.07570   0.04010   3.85450    72    71    67    62
 C    -2.07300   1.91690   3.24250    73    77    83    76
 C    -0.22790   3.26560   2.84140    74    77    66     6
 C    -1.86090  -0.43460   3.62110    75    76    70    80
 C    -1.31040   0.86670   3.77280    76    73    75    67
 C    -1.51750   3.07320   2.77400    77    74    15    73
 C    -2.45500  -2.85150   2.36640    78    69    79    86
 C    -3.40080  -1.85720   2.21730    79    78    88    80
 C    -3.13770  -0.61510   2.89300    80    82    79    75
 C    -4.55750   0.43370   1.18360    81    87    98    82
 C    -3.79920   0.52970   2.35700    82    83    81    80
 C    -3.24630   1.76990   2.55260    83    73    82    97
 C    -3.77780  -2.83440   0.01830    84    85    92    88
 C    -2.79750  -3.73410   0.22740    85    86    84    50
 C    -2.19400  -3.80320   1.39830    86    85    53    78
 C    -4.69040  -0.74590   0.50660    87    81    88    90
 C    -4.15900  -1.90560   1.00310    88    87    84    79
 C    -3.52540  -0.77180  -2.80910    89    96    91    54
 C    -4.76990  -0.47210  -0.85520    90    94    91    87
 C    -4.23360  -1.34420  -1.77800    91    92    89    90
 C    -3.75970  -2.52500  -1.32530    92    91    84    59
 C    -3.35630   2.62100  -1.85630    93   100    95    29
 C    -4.69230   0.88980  -0.99890    94    90    98    95
 C    -4.02860   1.44840  -2.08330    95    96    93    94
 C    -3.42680   0.57910  -2.95230    96    89    95    32
 C    -3.35960   2.81880   1.63540    97    99    15    83
 C    -4.62770   1.46960   0.24860    98    99    94    81
 C    -3.99900   2.66780   0.44340    99    97    98   100
 C    -3.37010   3.25120  -0.63970   100    93    99    13
