   100
C100-C2-4                                                                       
 C     3.84060  -2.77400  -0.56310     1    58     2     4
 C     4.89170  -1.83120  -0.47970     2     3    51     1
 C     5.08790  -0.89220  -1.46500     3     6     2    23
 C     2.97390  -2.77370  -1.72040     4     5     9     1
 C     3.20960  -1.76540  -2.63470     5     6     4    14
 C     4.21750  -0.85800  -2.50260     6     3    24     5
 C    -0.08690  -3.84040  -0.11730     7    10     8    78
 C     1.22030  -3.73190  -0.47350     8     7    57     9
 C     1.63870  -3.25020  -1.69670     9     8     4    12
 C    -1.14230  -3.62860  -0.94270    10     7    19    11
 C    -0.80820  -3.03690  -2.21300    11    16    12    10
 C     0.56220  -2.77620  -2.53320    12    11    13     9
 C     0.85430  -1.61890  -3.32730    13    14    33    12
 C     2.15350  -1.17650  -3.31620    14    13    25     5
 C    -3.13530  -2.37420  -2.27540    15    94    20    16
 C    -1.84170  -2.28410  -2.81100    16    15    11    34
 C    -3.56370  -2.58040   1.57970    17    18    98    79
 C    -2.46750  -3.27350   1.11180    18    17    77    19
 C    -2.39520  -3.49380  -0.31800    19    20    10    18
 C    -3.42680  -2.97990  -1.06760    20    99    19    15
 C     5.00220   1.45310  -1.38300    21    22    38    23
 C     4.11990   1.46890  -2.42370    22    24    21    31
 C     5.53380   0.28070  -0.88890    23    37    21     3
 C     3.74830   0.31440  -3.00340    24    22    25     6
 C     2.48970   0.15310  -3.48320    25    24    14    29
 C    -0.84060   1.67700  -3.31580    26    27    28    47
 C    -2.14060   1.23300  -3.30710    27    26    32    88
 C     0.18170   0.74600  -3.66250    28    29    26    33
 C     1.51360   1.14110  -3.49100    29    25    28    30
 C     1.85560   2.34570  -2.79660    30    31    48    29
 C     3.14880   2.42180  -2.25800    31    22    39    30
 C    -2.47560  -0.09480  -3.48010    32    95    27    34
 C    -0.16510  -0.68480  -3.66790    33    34    13    28
 C    -1.49540  -1.07770  -3.49910    34    32    33    16
 C     5.16700   1.04470   1.31610    35    36    52    37
 C     4.62360   2.19440   0.81400    36    38    35    40
 C     5.63510   0.06510   0.45810    37    23    51    35
 C     4.54420   2.41010  -0.52100    38    36    21    39
 C     3.42730   3.01290  -1.04030    39    38    42    31
 C     3.55800   2.56840   1.60530    40    41    36    53
 C     2.46800   3.27250   1.13970    41    40    55    42
 C     2.39620   3.51890  -0.28530    42    39    44    41
 C    -1.63110   3.29430  -1.67820    43    45    89    47
 C     1.14920   3.66410  -0.91460    44    46    42    48
 C    -1.21500   3.76000  -0.44760    45    46    84    43
 C     0.09170   3.86030  -0.08810    46    44    45    56
 C    -0.54960   2.83350  -2.51640    47    48    26    43
 C     0.81980   3.09020  -2.19520    48    30    47    44
 C     4.57360  -1.53490   1.83350    49    59    51    50
 C     4.13670  -0.55180   2.68940    50    52    70    49
 C     5.28130  -1.23790   0.71410    51    49    37     2
 C     4.40710   0.73000   2.40900    52    50    35    53
 C     3.40790   1.64310   2.62410    53    52    40    54
 C     2.16380   1.36440   3.22160    54    68    53    69
 C     1.28870   3.18730   1.89180    55    56    41    68
 C     0.16660   3.63240   1.27160    56    71    55    46
 C     1.97910  -3.59580   0.65510    57    58     8    64
 C     3.25260  -3.14010   0.66140    58    57    59     1
 C     3.59710  -2.46960   1.82580    59    49    58    60
 C     2.61590  -2.12510   2.75380    60    63    70    59
 C     0.54160  -0.47580   3.68060    61    74    69    62
 C     0.24570  -1.84690   3.27950    62    63    67    61
 C     1.33290  -2.57390   2.73140    63    60    64    62
 C     1.07380  -3.41810   1.68090    64    78    63    57
 C    -2.91690   0.86420   3.21690    65    75    81    66
 C    -1.88660  -0.02150   3.56330    66    65    74    76
 C    -1.09200  -2.23230   2.93560    67    76    62    77
 C     1.08430   2.21900   2.95590    68    54    73    55
 C     1.89010  -0.00020   3.57050    69    70    61    54
 C     2.91950  -0.88540   3.22770    70    60    50    69
 C    -1.08120   3.40970   1.70030    71    56    72    84
 C    -1.33690   2.55480   2.74750    72    75    71    73
 C    -0.25050   1.82570   3.29230    73    72    68    74
 C    -0.54080   0.45310   3.68270    74    61    66    73
 C    -2.62080   2.11290   2.75180    75    72    65    86
 C    -2.17280  -1.37850   3.20030    76    67    79    66
 C    -1.29030  -3.19630   1.86620    77    78    18    67
 C    -0.17030  -3.63950   1.24540    78    64    77     7
 C    -3.41590  -1.65080   2.59620    79    82    17    76
 C    -4.56110   1.51810   1.82360    80    86    83    81
 C    -4.13320   0.53130   2.67600    81    82    65    80
 C    -4.42230  -0.74270   2.38600    82    81    97    79
 C    -5.26520   1.23110   0.69540    83    80   100    91
 C    -1.98300   3.61340   0.67370    84    85    45    71
 C    -3.25470   3.15460   0.67360    85    84    86    92
 C    -3.60000   2.46680   1.82480    86    80    85    75
 C    -4.20630   0.90900  -2.49830    87    90    95    88
 C    -3.19560   1.82110  -2.62570    88    87    89    27
 C    -2.96910   2.82420  -1.70190    89    88    43    92
 C    -5.08370   0.91480  -1.46200    90    87    91    96
 C    -4.88980   1.85880  -0.48490    91    90    83    92
 C    -3.84710   2.80480  -0.55570    92    85    91    89
 C    -4.99640  -1.43480  -1.40470    93    94    99    96
 C    -4.11110  -1.42260  -2.44260    94    95    93    15
 C    -3.73730  -0.26510  -3.00530    95    94    32    87
 C    -5.52870  -0.26410  -0.90250    96   100    90    93
 C    -5.18360  -1.06820   1.29700    97    98    82   100
 C    -4.63760  -2.21240   0.79490    98    99    97    17
 C    -4.55640  -2.40360  -0.54280    99    98    93    20
 C    -5.63700  -0.07690   0.44920   100    96    97    83
