   100
C100-C1-107                                                                     
 C     4.00380   2.16780   1.30460     1     2    65     5
 C     3.66480   1.29950   2.32080     2    17     1    40
 C     3.49730   2.87940  -1.29810     3     4    68    11
 C     4.33340   1.89110  -1.04740     4     3     7     5
 C     4.65780   1.54230   0.23330     5     4    15     1
 C     2.97710  -0.63500  -3.06390     6     8    97    20
 C     4.33520   0.79650  -1.84840     7     4    19     8
 C     3.35330   0.65940  -2.84870     8     6     7    13
 C     0.25240   3.47320  -2.44780     9    10    70    14
 C     1.55250   3.63600  -1.99730    10    11     9    67
 C     2.56540   2.80270  -2.31950    11    10     3    13
 C     1.03350   1.36180  -3.52070    12    96    14    13
 C     2.38380   1.66100  -3.08500    13    11     8    12
 C    -0.04250   2.28720  -3.23730    14    92    12     9
 C     4.98790   0.21190   0.19570    15     5    16    19
 C     4.71470  -0.60430   1.26980    16    18    15    17
 C     4.00990  -0.02670   2.31090    17     2    25    16
 C     4.40630  -1.91150   1.00430    18    16    23    22
 C     4.82770  -0.25400  -1.10670    19    21     7    15
 C     3.52700  -1.70290  -2.37290    20    37    21     6
 C     4.45410  -1.54070  -1.35910    21    19    22    20
 C     4.30550  -2.39920  -0.30160    22    21    39    18
 C     3.49560  -2.60600   1.76560    23    29    18    24
 C     2.74450  -2.01320   2.79640    24    25    23    32
 C     3.03790  -0.70400   3.02120    25    24    26    17
 C     2.07880   0.18090   3.45600    26    25    40    27
 C     0.74730  -0.16720   3.72050    27    26    28    33
 C    -0.21040   0.89180   3.65980    28    27    35    41
 C     2.95540  -3.55200   0.96620    29    30    23    39
 C     1.75300  -4.01150   1.23750    30    29    88    31
 C     1.01820  -3.52110   2.28890    31    57    30    32
 C     1.42380  -2.44060   3.06270    32    31    24    33
 C     0.38140  -1.54800   3.53540    33    27    34    32
 C    -1.00890  -1.87680   3.30740    34    58    59    33
 C    -1.59420   0.50980   3.50190    35    36    59    28
 C    -2.45640   1.49480   3.00790    36    43    55    35
 C     2.57930  -2.70040  -2.36790    37    20    38    84
 C     2.46650  -3.63070  -1.36000    38    37    39    87
 C     3.37380  -3.40630  -0.31980    39    29    22    38
 C     2.48710   1.43830   3.04300    40    42    26     2
 C     0.23740   2.24030   3.25680    41    44    42    28
 C     1.61360   2.48380   2.88660    42    40    64    41
 C    -2.02840   2.73600   2.61210    43    44    36    46
 C    -0.72120   3.12570   2.71080    44    43    45    41
 C    -0.32920   4.06330   1.76670    45    63    44    48
 C    -2.88780   3.19720   1.62800    46    50    47    43
 C    -2.43280   3.98680   0.60770    47    48    46    49
 C    -1.16380   4.42180   0.70940    48    47    69    45
 C    -2.88300   3.64930  -0.64970    49    53    47    71
 C    -3.85550   2.26360   1.44880    50    46    55    52
 C    -4.89170   0.80090  -0.01490    51    52    56    73
 C    -4.42550   2.04630   0.20670    52    51    53    50
 C    -3.82620   2.70160  -0.84450    53    49    52    75
 C    -4.09320  -0.03350   2.12590    54    55    56    62
 C    -3.63470   1.22720   2.33840    55    54    36    50
 C    -4.84190  -0.20570   0.94180    56    79    51    54
 C    -0.26670  -3.79550   2.01950    57    31    58    81
 C    -1.29740  -3.07000   2.56130    58    60    57    34
 C    -2.02900  -0.85300   3.31630    59    35    34    62
 C    -2.47450  -3.22850   1.88350    60    61    58    83
 C    -3.47100  -2.30430   1.95010    61    60    78    62
 C    -3.30090  -1.09930   2.63980    62    61    54    59
 C     0.95790   4.18400   1.36910    63    45    66    64
 C     2.00440   3.45930   1.90430    64    63    65    42
 C     3.15270   3.25140   1.07210    65     1    68    64
 C     0.90490   4.54950   0.04150    66    67    69    63
 C     1.87140   4.17860  -0.76260    67    66    68    10
 C     2.99170   3.62740  -0.27970    68    67     3    65
 C    -0.36400   4.58640  -0.38850    69    66    48    70
 C    -0.73530   4.08100  -1.64340    70    71    69     9
 C    -2.00190   3.61660  -1.71960    71    70    91    49
 C    -4.76210  -1.12690  -1.04370    72    73    76    79
 C    -4.72470   0.19940  -1.26360    73    72    51    74
 C    -3.91130   0.76430  -2.26050    74    75    73    93
 C    -3.51650   2.04170  -2.02580    75    74    91    53
 C    -4.01080  -1.93570  -1.81490    76    72    80    98
 C    -3.60380  -3.33930   0.01110    77    83    78    80
 C    -4.24160  -2.44280   0.81210    78    79    77    61
 C    -4.86790  -1.38510   0.29750    79    78    56    72
 C    -3.46750  -3.06680  -1.31790    80    76    89    77
 C    -0.33420  -4.39810   0.75460    81    82    88    57
 C    -1.44020  -4.33180  -0.00610    82    81    83    90
 C    -2.56220  -3.88600   0.64730    83    77    82    60
 C     1.47540  -2.25780  -3.06520    84    85    37    97
 C     0.21800  -2.78260  -2.90890    85    84   100    86
 C     0.05230  -3.82990  -1.91360    86    90    87    85
 C     1.19230  -4.16050  -1.10930    87    88    38    86
 C     0.91180  -4.41330   0.23970    88    81    30    87
 C    -2.29570  -3.33170  -1.96150    89    80    90    99
 C    -1.24960  -4.02370  -1.39000    90    89    86    82
 C    -2.34530   2.55720  -2.52820    91    75    71    92
 C    -1.39760   1.80730  -3.25660    92    91    14    94
 C    -3.01790  -0.05340  -3.01060    93    98    74    94
 C    -1.73580   0.42410  -3.48350    94    92    93    95
 C    -0.64790  -0.51660  -3.67640    95    96    94   100
 C     0.69230  -0.02280  -3.72530    96    97    95    12
 C     1.70660  -0.95660  -3.48010    97     6    84    96
 C    -3.14070  -1.41350  -2.74740    98    99    76    93
 C    -2.09240  -2.29200  -2.86440    99   100    98    89
 C    -0.85070  -1.91960  -3.31210   100    99    85    95
