   100
C100-C1-88                                                                      
 C     2.02060   3.74000   1.45490     1    10    57     2
 C     2.42340   2.77800   2.41290     2     3     1    11
 C     3.56160   2.02280   2.08460     3     2     4    74
 C     3.66220   0.71060   2.59100     4     3     5     7
 C     4.43700  -0.19210   1.81170     5     6    48     4
 C     4.17920  -1.52520   1.76780     6     9     5    20
 C     2.57670   0.16330   3.36670     7     8    12     4
 C     2.44000  -1.21330   3.32450     8    27     7     9
 C     3.22580  -2.03020   2.52900     9     6    22     8
 C     0.75690   4.16560   1.30870    10    13     1    66
 C     1.36150   2.22770   3.21240    11    14    12     2
 C     1.36900   0.88230   3.66810    12    11     7    29
 C    -0.16770   3.75960   2.14490    13    10    15    14
 C     0.09980   2.78620   3.06550    14    13    86    11
 C    -1.44470   3.74350   1.76920    15    13    99    17
 C    -3.00940   3.47530   0.12710    16    17    67    97
 C    -1.83490   4.02150   0.46140    17    16    15    65
 C     3.31600  -2.96040  -1.30930    18    19    31    43
 C     3.61020  -3.08800   0.03070    19    18    23    20
 C     4.41610  -2.05060   0.51820    20     6    30    19
 C     1.35890  -3.01860   2.80060    21    24    22    27
 C     2.51940  -3.11020   2.12140    22    21     9    23
 C     2.62490  -3.67470   0.83580    23    19    22    26
 C     0.28730  -3.60070   2.34110    24    21    92    25
 C     0.29840  -4.19250   1.10880    25    44    24    26
 C     1.40700  -4.16780   0.28020    26    25    23    42
 C     1.24900  -1.85100   3.50920    27     8    21    28
 C     0.02560  -1.23450   3.76690    28    27    29    91
 C     0.06730   0.18110   3.87700    29    28    87    12
 C     4.90610  -1.00470  -0.23280    30    20    48    32
 C     3.79610  -1.90500  -2.06320    31    33    18    32
 C     4.60580  -0.87820  -1.58580    32    30    31    50
 C     2.82740  -1.66750  -2.99420    33    34    35    31
 C     2.62600  -0.43490  -3.45290    34    33    49    41
 C     1.77090  -2.51460  -2.86980    35    33    43    39
 C    -1.88450  -2.38820  -2.82480    36    37    38    71
 C    -2.87620  -2.85170  -1.94590    37    80    47    36
 C    -0.57930  -2.93150  -2.67390    38    39    36    46
 C     0.46980  -2.19740  -3.26440    39    35    38    40
 C     0.25150  -0.85910  -3.76010    40    41    72    39
 C     1.36500  -0.03200  -3.78650    41    34    58    40
 C     1.09310  -3.97250  -1.10160    42    43    26    46
 C     2.08280  -3.35500  -1.82350    43    42    35    18
 C    -0.97840  -4.17580   0.69400    44    25    45    83
 C    -1.30970  -4.06400  -0.63600    45    47    44    46
 C    -0.26520  -3.84030  -1.56210    46    45    42    38
 C    -2.56410  -3.60210  -0.84150    47    45    37    85
 C     4.97870   0.10420   0.58430    48    52     5    30
 C     3.38920   0.59640  -3.02660    49    34    53    50
 C     4.40630   0.42450  -2.09510    50    51    49    32
 C     4.54420   1.50170  -1.24550    51    50    52    55
 C     4.82000   1.33170   0.09600    52    48    74    51
 C     2.55780   1.69990  -3.10470    53    54    58    49
 C     2.70450   2.77240  -2.27800    54    53    55    61
 C     3.74650   2.62510  -1.34900    55    56    51    54
 C     3.61710   3.12010  -0.08820    56    57    55    74
 C     2.55600   3.83200   0.20360    57    56     1    62
 C     1.31500   1.32930  -3.58020    58    41    53    59
 C     0.12750   2.00160  -3.34370    59    58    69    60
 C     0.22290   3.17730  -2.50410    60    64    59    61
 C     1.53340   3.50280  -1.96920    61    62    54    60
 C     1.55510   4.09340  -0.70970    62    66    57    61
 C    -2.20760   2.96050  -2.10810    63    67    64    68
 C    -0.97220   3.59450  -1.81320    64    63    60    65
 C    -0.83260   4.20560  -0.51020    65    66    17    64
 C     0.43600   4.36980  -0.02210    66    62    65    10
 C    -3.24800   3.03280  -1.15090    67    77    16    63
 C    -2.26230   1.80090  -2.96250    68    70    69    63
 C    -1.07590   1.24270  -3.50290    69    68    59    72
 C    -3.36020   0.94640  -2.81140    70    76    73    68
 C    -2.09900  -1.05580  -3.35680    71    73    72    36
 C    -1.00650  -0.22550  -3.70780    72    40    71    69
 C    -3.28760  -0.42200  -3.00190    73    81    70    71
 C     4.17620   2.28280   0.82880    74    56    52     3
 C    -4.91790  -0.03100  -1.53040    75    81    76    78
 C    -4.39020   1.15970  -1.91550    76    77    75    70
 C    -4.28710   2.17010  -1.05180    77    76    67    96
 C    -5.23620  -0.23830  -0.20050    78    82   100    75
 C    -4.34650  -2.39430  -0.34900    79    85    82    80
 C    -4.02220  -2.17480  -1.66550    80    81    37    79
 C    -4.26710  -0.99050  -2.22300    81    80    75    73
 C    -4.88670  -1.40190   0.39400    82    79    78    94
 C    -1.77070  -3.59670   1.69570    83    84    92    44
 C    -2.98280  -3.05930   1.48270    84    83    85    95
 C    -3.43680  -3.21770   0.17770    85    79    84    47
 C    -1.10090   2.15700   3.29170    86    14    99    87
 C    -1.20350   0.82580   3.66520    87    86    29    89
 C    -3.48190   0.90210   2.61420    88    93    98    89
 C    -2.44280   0.15010   3.30580    89    90    87    88
 C    -2.40530  -1.28350   3.12850    90    91    89    95
 C    -1.16380  -1.93240   3.36870    91    92    90    28
 C    -0.94010  -3.12830   2.65990    92    24    83    91
 C    -4.41620   0.21310   1.83040    93    94   100    88
 C    -4.35710  -1.14280   1.65050    94    93    95    82
 C    -3.37000  -1.91480   2.24130    95    94    84    90
 C    -4.61550   1.97090   0.26630    96    97   100    77
 C    -3.77830   2.70940   1.00530    97    96    16    98
 C    -3.24130   2.23820   2.20990    98    99    97    88
 C    -2.07420   2.80520   2.55620    99    98    15    86
 C    -5.01100   0.76220   0.69220   100    96    78    93
