   100
C100-C1-53                                                                      
 C     4.47120  -1.97160   1.01920     1     2     6    69
 C     4.63490  -0.82560   1.68220     2     1     3    24
 C     5.09290   0.27370   1.04310     3     2     4    70
 C     4.46770   1.31730   1.64520     4     5     3    11
 C     4.16900   2.40450   0.93610     5     4    10    49
 C     3.49700  -2.83060   1.37550     6     1    75    22
 C    -0.78760   4.30510   0.69340     7    19     8    31
 C     0.53430   4.16000   1.03740     8     7    29    17
 C     2.15850   2.81740   2.27940     9    10    17    13
 C     3.07370   3.14070   1.24990    10     5    30     9
 C     3.56990   0.87850   2.59700    11    24     4    13
 C     1.32390   0.79450   3.47570    12    13    15    27
 C     2.40380   1.56440   2.94860    13    11    12     9
 C    -1.04610   0.59770   3.67580    14    43    15    28
 C     0.04690   1.43440   3.50090    15    14    12    16
 C    -0.23100   2.72050   2.89570    16    17    18    15
 C     0.85120   3.36080   2.19930    17     9    16     8
 C    -1.60280   3.01380   2.53720    18    19    44    16
 C    -1.81830   3.82430   1.42370    19     7    39    18
 C     1.12330  -4.08780   1.16480    20    95    76    21
 C     1.30000  -3.27700   2.28990    21    20    22    25
 C     2.53440  -2.59550   2.39030    22    21     6    23
 C     2.60730  -1.30930   3.00390    23    24    27    22
 C     3.67490  -0.49230   2.62960    24    11     2    23
 C     0.10310  -2.78210   2.86650    25    21    26    97
 C     0.21430  -1.47580   3.48640    26    28    27    25
 C     1.41910  -0.68940   3.48960    27    23    26    12
 C    -0.96630  -0.78740   3.64950    28   100    26    14
 C     1.44020   4.22040  -0.04320    29    30    33     8
 C     2.67340   3.73690   0.08240    30    29    10    48
 C    -1.24290   4.33590  -0.61040    31    32    34     7
 C    -0.37470   4.12060  -1.57840    32    31    33    35
 C     0.92750   4.11010  -1.33190    33    32    46    29
 C    -2.49230   3.86890  -0.69910    34    31    39    37
 C    -0.67470   3.26540  -2.59900    35    32    36    51
 C    -1.90980   2.68450  -2.71380    36    35    64    37
 C    -2.93090   3.06170  -1.76610    37    41    34    36
 C    -3.86750   2.81280   0.84960    38    39    45    40
 C    -2.90700   3.67400   0.58390    39    38    34    19
 C    -4.47280   2.10500  -0.15430    40    38    87    41
 C    -3.97500   2.18580  -1.46980    41    42    37    40
 C    -4.01520   1.00140  -2.15450    42    41    90    63
 C    -2.34350   0.92740   3.36780    43    44    14    91
 C    -2.67240   2.12780   2.79850    44    43    45    18
 C    -3.81290   2.06540   1.97930    45    38    94    44
 C     1.52150   3.31550  -2.28840    46    47    51    33
 C     2.74040   2.78510  -2.13340    47    46    48    54
 C     3.39600   3.15440  -0.95380    48    49    30    47
 C     4.36230   2.41070  -0.42490    49    48    50     5
 C     4.78310   1.30200  -1.05280    50    49    70    55
 C     0.51340   2.70400  -2.99860    51    35    46    52
 C     0.63230   1.40850  -3.50930    52    51    65    53
 C     1.90980   0.76170  -3.34430    53    52    58    54
 C     2.98780   1.51160  -2.71230    54    55    47    53
 C     4.05490   0.83020  -2.14580    55    60    54    50
 C    -0.56060  -0.72230  -3.67510    56    67    65    57
 C     0.71270  -1.42050  -3.45950    57    62    58    56
 C     1.95620  -0.69270  -3.30900    58    57    59    53
 C     3.08580  -1.33560  -2.65420    59    60    72    58
 C     4.11160  -0.53510  -2.11780    60    55    71    59
 C    -0.59710  -3.28550  -2.60240    61    68    79    62
 C     0.66090  -2.75560  -2.90220    62    61    74    57
 C    -2.98780   0.63240  -3.02520    63    66    64    42
 C    -1.87040   1.39790  -3.31710    64    63    36    65
 C    -0.61260   0.72200  -3.67090    65    52    56    64
 C    -2.95600  -0.72260  -3.07070    66    63    67    83
 C    -1.79030  -1.40660  -3.38500    67    68    66    56
 C    -1.77160  -2.66930  -2.84550    68    61    67    86
 C     4.60370  -1.98530  -0.36250    69    71    73     1
 C     5.23930   0.25190  -0.33440    70    71    50     3
 C     4.89920  -0.86290  -1.01560    71    69    70    60
 C     2.94280  -2.61140  -2.03440    72    74    73    59
 C     3.70400  -2.84540  -0.85850    73    69    75    72
 C     1.73480  -3.29110  -2.14650    74    72    77    62
 C     3.15520  -3.47640   0.22400    75    76     6    73
 C     2.01880  -4.07060   0.12490    76    75    77    20
 C     1.36220  -4.11390  -1.05410    77    80    76    74
 C    -2.10280  -3.96630  -1.07800    78    79    86    82
 C    -0.85510  -4.12620  -1.54240    79    80    78    61
 C     0.11230  -4.43560  -0.72990    80    79    77    95
 C    -3.45780  -3.19070   0.63270    81    98    82    84
 C    -2.38000  -3.95820   0.29760    82    81    78    96
 C    -3.95700  -1.21090  -2.22880    83    85    90    66
 C    -4.22630  -2.48330  -0.28700    84    88    85    81
 C    -3.82140  -2.42060  -1.60940    85    86    83    84
 C    -2.74550  -3.14680  -1.96330    86    85    78    68
 C    -4.94230   0.93840   0.40910    87    89    40    94
 C    -4.80190  -1.40780   0.33540    88    84    89    92
 C    -5.05050  -0.21700  -0.32880    89    87    88    90
 C    -4.57970  -0.14540  -1.63300    90    83    42    89
 C    -3.07390  -0.22110   3.15680    91   100    93    43
 C    -4.34540  -1.43150   1.64830    92    93    98    88
 C    -4.18200  -0.26040   2.34020    93    94    92    91
 C    -4.52670   0.91490   1.73750    94    93    45    87
 C    -0.08160  -4.39480   0.63620    95    20    96    80
 C    -1.28280  -4.05770   1.19780    96    95    82    97
 C    -1.21050  -3.23970   2.38040    97    99    96    25
 C    -3.48540  -2.50470   1.81220    98    81    92    99
 C    -2.36420  -2.47480   2.64960    99   100    98    97
 C    -2.20440  -1.27760   3.30490   100    99    28    91
