   100
C100-C1-79                                                                      
 C     1.60710  -3.53660  -1.90320     1    10    61     2
 C     1.49730  -2.54300  -2.88970     2     1     3    15
 C     2.64020  -1.70050  -2.98930     3     4     2    74
 C     2.45520  -0.38630  -3.44020     4     3     5     7
 C     3.39480   0.57070  -2.97080     5     6    52     4
 C     3.08120   1.86800  -2.76180     6     9     5    23
 C     1.14360   0.05670  -3.77090     7     8     4    16
 C     0.94280   1.43250  -3.59290     8    42     9     7
 C     1.87240   2.28490  -3.06670     9     6    24     8
 C     0.53090  -4.08620  -1.29500    10     1    13    67
 C    -1.34060  -0.13590  -3.61500    11    40    41    16
 C    -2.28020  -2.22390  -2.70400    12    17    14    40
 C    -0.76410  -3.81140  -1.64810    13    10    19    14
 C    -0.99110  -2.82440  -2.67980    14    12    13    15
 C     0.15480  -2.13300  -3.25070    15     2    16    14
 C    -0.02950  -0.77040  -3.71160    16     7    15    11
 C    -3.23980  -2.65500  -1.75170    17    95    18    12
 C    -2.91200  -3.45590  -0.68970    18    19    17   100
 C    -1.70690  -4.02050  -0.61120    19    18    20    13
 C    -1.24920  -4.18600   0.69340    20    66    98    19
 C     3.46800   3.20090   0.42360    21    28    22    45
 C     3.13680   3.34770  -0.90400    22    21    23    25
 C     3.76180   2.39780  -1.70620    23     6    44    22
 C     1.26390   3.27870  -2.36640    24    30     9    25
 C     1.83130   3.82660  -1.21940    25    24    26    22
 C     0.87600   4.21090  -0.23460    26    25    27    32
 C     1.29530   4.00570   1.11200    27    29    28    26
 C     2.53780   3.48570   1.39060    28    21    27    49
 C     0.34200   3.68440   2.04710    29    35    27    51
 C    -0.06920   3.14890  -2.59490    30    24    31    42
 C    -1.03450   3.64640  -1.77000    31    30    38    32
 C    -0.54570   4.17730  -0.51650    32    34    31    26
 C    -2.74260   3.61160   0.34180    33    34    39    86
 C    -1.46450   4.04180   0.55170    34    33    35    32
 C    -0.97100   3.72690   1.79630    35    29    34    88
 C    -3.64440   1.17200  -2.54700    36    91    37    43
 C    -2.53460   1.95380  -2.80520    37    36    41    38
 C    -2.32570   3.11060  -1.94710    38    39    31    37
 C    -3.22060   3.23630  -0.89080    39    92    33    38
 C    -2.46690  -0.89160  -3.19030    40    43    11    12
 C    -1.43710   1.30780  -3.42590    41    42    37    11
 C    -0.26920   2.00190  -3.37280    42     8    41    30
 C    -3.61040  -0.19730  -2.74020    43    96    36    40
 C     4.60600   1.40500  -1.25460    44    23    52    46
 C     4.29610   2.18360   0.89770    45    47    46    21
 C     4.90660   1.22970   0.09020    46    44    45    54
 C     3.81550   1.85130   2.13210    47    48    49    45
 C     3.87190   0.58880   2.57400    48    47    53    69
 C     2.74760   2.60990   2.44870    49    47    50    28
 C     1.71250   2.12540   3.23640    50    51    49    68
 C     0.53340   2.74050   3.04870    51    50    75    29
 C     4.40210   0.31470  -2.07530    52    56     5    44
 C     4.48080  -0.37450   1.83730    53    48    57    54
 C     5.02810  -0.09600   0.57820    54    55    53    46
 C     4.88140  -1.15180  -0.30580    55    59    56    54
 C     4.54890  -0.92430  -1.63050    56    52    74    55
 C     3.83720  -1.56120   2.16280    57    58    53    70
 C     3.74940  -2.61620   1.29330    58    57    63    59
 C     4.29970  -2.35110   0.03040    59    60    55    58
 C     3.68370  -2.82090  -1.10100    60    61    74    59
 C     2.65460  -3.62520  -1.00500    61    60    64     1
 C     1.61520  -3.18550   2.37930    62    65    72    63
 C     2.64210  -3.45690   1.40450    63    58    64    62
 C     2.18620  -4.03240   0.20540    64    67    61    63
 C     0.35600  -3.67390   2.12340    65    66    62    81
 C     0.04050  -4.32430   0.96120    66    67    20    65
 C     0.92340  -4.40040  -0.00590    67    66    64    10
 C     1.68410   0.77550   3.65690    68    69    50    73
 C     2.81840   0.05990   3.29700    69    70    48    68
 C     2.79620  -1.27920   3.05700    70    69    72    57
 C     0.40100  -1.34530   3.62060    71    80    73    72
 C     1.63030  -2.01810   3.19000    72    70    62    71
 C     0.42800   0.08130   3.84440    73    76    71    68
 C     3.73040  -1.91240  -2.09850    74    60    56     3
 C    -0.66290   2.15480   3.33850    75    51    88    76
 C    -0.80790   0.81110   3.72380    76    75    78    73
 C    -3.13070   1.04130   2.85210    77    82    87    78
 C    -2.08470   0.21690   3.43780    78    76    79    77
 C    -2.12260  -1.21070   3.23310    79    78    80    84
 C    -0.87640  -1.93710   3.31720    80    81    71    79
 C    -0.81770  -3.12640   2.58670    81    65    98    80
 C    -4.17720   0.43830   2.15910    82    83    89    77
 C    -4.22120  -0.91640   1.96190    83    82    97    84
 C    -3.22010  -1.75950   2.44810    84    83    99    79
 C    -4.43750   2.21700   0.63580    85    86    89    92
 C    -3.46550   2.87860   1.28900    86    85    87    33
 C    -2.84410   2.36210   2.42340    87    88    86    77
 C    -1.61970   2.85080   2.65580    88    87    75    35
 C    -4.86200   1.02300   1.09860    89    85    93    82
 C    -5.10370   0.27460  -1.11520    90    91    96    93
 C    -4.57030   1.44020  -1.56040    91    92    90    36
 C    -4.29890   2.43810  -0.70800    92    91    39    85
 C    -5.27310   0.05650   0.23910    93    97    89    90
 C    -4.53490  -2.14930  -0.01110    94   100    97    95
 C    -4.31290  -1.91730  -1.35200    95    96    17    94
 C    -4.54640  -0.71470  -1.87120    96    95    90    43
 C    -4.93010  -1.13500   0.77930    97    94    93    83
 C    -1.83870  -3.54490   1.76120    98    99    20    81
 C    -3.02330  -2.92410   1.66570    99    98   100    84
 C    -3.64150  -3.03680   0.41890   100    94    18    99
