   100
C100-C1-342                                                                     
 C    -3.52720  -1.68870  -2.34520     1     2     8    61
 C    -3.64900  -0.37620  -2.69220     2     1     3     7
 C    -4.40210   0.37280  -1.77290     3     4    60     2
 C    -4.12870   1.68730  -1.57130     4     5     3    12
 C    -3.17910   2.27860  -2.27670     5     4    13     6
 C    -2.43810   1.57850  -3.19520     6    29     5     7
 C    -2.57880   0.21200  -3.42350     7     6     2    25
 C    -2.42130  -2.40310  -2.72120     8    73     1     9
 C    -1.31460  -1.89010  -3.43660     9     8    25    24
 C     0.08530   3.76700   2.11540    10    22    11    33
 C    -1.16890   3.88360   1.58260    11    10    32    16
 C    -4.33230   2.03420  -0.26870    12     4    50    15
 C    -2.42820   3.28750  -1.73600    13    17     5    14
 C    -2.52850   3.69040  -0.40250    14    13    15    16
 C    -3.53270   3.00610   0.34250    15    31    12    14
 C    -1.30990   4.17190   0.19220    16    11    14    20
 C    -1.26460   3.31560  -2.43400    17    13    19    29
 C     1.01390   3.35900  -2.52640    18    45    19    30
 C    -0.12120   3.85600  -1.92690    19    17    18    20
 C    -0.08490   4.31910  -0.58040    20    19    21    16
 C     1.20920   4.28390   0.03970    21    22    46    20
 C     1.21800   4.00290   1.40530    22    10    40    21
 C    -0.05650  -3.60630  -2.30080    23    77    72    24
 C    -0.05740  -2.54700  -3.24020    24    23    96     9
 C    -1.37620  -0.51470  -3.79940    25     9    27     7
 C     1.15870  -0.50160  -3.84800    26    99    96    27
 C    -0.12170   0.18380  -3.99050    27    28    25    26
 C    -0.13620   1.60370  -3.76600    28    29    30    27
 C    -1.27060   2.23310  -3.33270    29     6    28    17
 C     1.00440   2.27050  -3.40570    30   100    28    18
 C    -3.27690   2.73000   1.66520    31    32    15    48
 C    -2.11830   3.13460   2.24380    32    31    11    35
 C     0.40830   2.84140   3.12350    33    41    34    10
 C    -0.50960   1.96160   3.63530    34    35    33    37
 C    -1.79190   2.19600   3.22390    35    52    34    32
 C     1.31790   0.37620   3.87530    36    38    44    37
 C    -0.08870   0.65100   4.00280    37    34    36    53
 C     1.66670  -0.94120   3.68720    38    36    90    56
 C     3.31280   2.94450   1.37100    39    40    47    42
 C     2.22770   3.31890   2.02640    40    39    41    22
 C     1.73140   2.54500   3.02940    41    33    40    44
 C     3.95140   1.77650   1.69170    42    39    85    43
 C     3.47530   0.90780   2.68800    43    42    89    44
 C     2.27800   1.31680   3.38480    44    41    36    43
 C     2.23050   3.39470  -1.92690    45    18    46    91
 C     2.38480   3.85940  -0.63920    46    45    47    21
 C     3.42500   3.22320   0.04520    47    39    94    46
 C    -3.70600   1.57360   2.29280    48    49    52    31
 C    -4.46620   0.63100   1.66530    49    48    51    50
 C    -4.80120   0.89230   0.35360    50    49    12    60
 C    -4.20930  -0.67830   1.99740    51    58    49    55
 C    -2.73510   1.22510   3.21500    52    35    48    54
 C    -1.08190  -0.41290   3.90320    53    54    57    37
 C    -2.41260  -0.08470   3.53420    54    55    52    53
 C    -3.20200  -1.02360   2.89390    55    63    54    51
 C     0.71900  -1.94980   3.54250    56    68    57    38
 C    -0.64170  -1.75330   3.60710    57    56    62    53
 C    -4.33300  -1.69690   1.08670    58    51    64    59
 C    -4.66870  -1.44030  -0.23320    59    61    60    58
 C    -4.87960  -0.13090  -0.57510    60    59    50     3
 C    -4.03070  -2.22140  -1.15340    61    67    59     1
 C    -1.44610  -2.69450   2.86910    62    63    57    65
 C    -2.72750  -2.26760   2.55250    63    55    64    62
 C    -3.43130  -2.68740   1.44180    64    66    63    58
 C    -0.85140  -3.68940   2.00120    65    69    70    62
 C    -2.85360  -3.53270   0.53080    66    64    67    70
 C    -3.20570  -3.24830  -0.79500    67    73    61    66
 C     1.29440  -2.96230   2.81570    68    82    56    69
 C     0.56960  -3.81610   1.98500    69    68    80    65
 C    -1.57610  -4.05690   0.81040    70    71    66    65
 C    -0.78430  -4.35120  -0.30570    71    79    72    70
 C    -1.15290  -3.95890  -1.57150    72    73    23    71
 C    -2.30930  -3.40180  -1.79600    73    72    67     8
 C     4.02620  -2.51960  -0.45010    74    78    75    83
 C     3.04940  -3.44630  -0.63880    75    74    81    76
 C     2.23370  -3.43790  -1.76970    76    77    75    95
 C     1.01650  -3.98340  -1.55960    77    76    23    79
 C     4.23080  -1.60740  -1.39380    78    74    86    97
 C     0.55970  -4.41100  -0.30690    79    71    80    77
 C     1.28870  -4.23090   0.82930    80    79    81    69
 C     2.57830  -3.79680   0.61370    81    84    80    75
 C     2.59110  -2.58360   2.57190    82    84    90    68
 C     4.15200  -2.19850   0.87850    83    84    74    88
 C     3.25060  -3.00740   1.49360    84    82    83    81
 C     4.56400   1.34830   0.53120    85    87    42    94
 C     4.67200  -0.37370  -1.03400    86    78    92    87
 C     4.81450   0.01330   0.31370    87    85    86    88
 C     4.46780  -0.91070   1.32690    88    83    87    89
 C     3.76620  -0.45660   2.50010    89    90    43    88
 C     2.83650  -1.33390   3.06550    90    82    38    89
 C     2.99510   2.37490  -2.46270    91    93    45   100
 C     4.22220   0.47660  -2.02350    92    93    86    98
 C     4.01530   1.79650  -1.76410    93    92    91    94
 C     4.22000   2.23630  -0.48450    94    93    47    85
 C     2.35840  -2.40190  -2.73770    95    97    76    96
 C     1.19220  -1.89400  -3.44270    96    24    26    95
 C     3.41880  -1.53730  -2.50830    97    98    78    95
 C     3.41090  -0.24510  -2.90630    98    97    99    92
 C     2.32220   0.29890  -3.56390    99   100    98    26
 C     2.20030   1.65640  -3.34110   100    30    99    91
