   100
C100-C1-70                                                                      
 C     3.49120   0.64220  -2.65730     1     2    64     4
 C     4.47250   0.53680  -1.66710     2     3    60     1
 C     4.88710  -0.66020  -1.13470     3     6    22     2
 C     2.87350  -0.58680  -3.12010     4     5     8     1
 C     3.30720  -1.75300  -2.49770     5     6    12     4
 C     4.27760  -1.78830  -1.54380     6     3     5    23
 C     0.95050   0.59630  -3.78970     7     8    17    65
 C     1.55630  -0.62770  -3.63860     8     7     4    10
 C    -0.75600  -1.54340  -3.59420     9    13    19    10
 C     0.67110  -1.75130  -3.50830    10     8    11     9
 C     1.15960  -2.87050  -2.74470    11    12    29    10
 C     2.44800  -2.81280  -2.27000    12    11     5    24
 C    -1.56480  -2.48840  -3.00060    13    28     9   100
 C    -1.84010   3.47660  -2.09030    14    81    15    68
 C    -1.92750   2.40520  -2.96290    15    16    14    96
 C    -0.69870   2.04810  -3.47830    16    17    15    70
 C    -0.42300   0.76460  -3.84680    17    16    19     7
 C    -2.67520   0.08360  -3.25450    18    99    19    96
 C    -1.34950  -0.24960  -3.74470    19    17     9    18
 C     4.83930  -1.46350   1.07430    20    21    35    22
 C     4.21430  -2.58580   0.64580    21    23    20    25
 C     5.22830  -0.49570   0.17410    22    34     3    20
 C     3.96980  -2.78290  -0.66680    23    24    21     6
 C     2.85280  -3.41250  -1.07720    24    23    27    12
 C     3.21300  -2.91730   1.53650    25    26    21    36
 C     2.08830  -3.62230   1.18900    26    25    38    27
 C     1.92340  -3.96200  -0.21170    27    30    24    26
 C    -1.06370  -3.52380  -2.24540    28    91    13    29
 C     0.28490  -3.70930  -2.02700    29    28    11    30
 C     0.66690  -4.20830  -0.72900    30    31    27    29
 C    -0.35960  -4.35090   0.17720    31    92    30    39
 C     4.53230   1.15120   1.65920    32    42    34    33
 C     4.07520   0.18800   2.52290    33    35    53    32
 C     5.05420   0.81620   0.45190    34    22    32    60
 C     4.21020  -1.10180   2.22640    35    33    20    36
 C     3.18090  -1.95130   2.52500    36    35    25    37
 C     1.99200  -1.56980   3.18230    37    51    36    52
 C     0.94670  -3.44550   2.00800    38    39    26    51
 C    -0.21960  -3.92650   1.49130    39    54    38    31
 C     2.28270   3.72790   0.86640    40    41    61    47
 C     3.41780   3.02280   0.70200    41    40    42    59
 C     3.71730   2.20750   1.77880    42    32    41    43
 C     2.76080   1.91830   2.75960    43    46    53    42
 C     0.55970   0.42890   3.68280    44    57    52    45
 C     0.40140   1.85650   3.36650    45    46    50    44
 C     1.55250   2.53090   2.84770    46    43    47    45
 C     1.39910   3.55130   1.93790    47    76    46    40
 C    -2.97370  -0.62370   3.13090    48    58    84    49
 C    -1.89380   0.19470   3.51920    49    48    57    74
 C    -0.89530   2.40740   3.05510    50    74    45    75
 C     0.84910  -2.36970   2.99430    51    37    56    38
 C     1.85270  -0.17890   3.52480    52    53    44    37
 C     2.93810   0.62640   3.14720    53    43    33    52
 C    -1.45170  -3.55150   1.92550    54    39    55    87
 C    -1.59880  -2.53030   2.84910    55    58    54    56
 C    -0.44840  -1.83880   3.33650    56    55    51    57
 C    -0.60040  -0.41700   3.67760    57    44    49    56
 C    -2.82950  -1.93680   2.77840    58    48    55    89
 C     3.79870   2.61820  -0.61600    59    60    41    63
 C     4.60760   1.49500  -0.67110    60    59    34     2
 C     1.54620   4.17980  -0.17640    61    40    66    62
 C     1.78310   3.75570  -1.49220    62    61    69    63
 C     2.89930   2.88440  -1.70170    63    62    59    64
 C     2.75630   1.85090  -2.71010    64    65     1    63
 C     1.52740   1.77980  -3.35440    65    70     7    64
 C     0.30350   4.46170   0.30200    66    67    61    76
 C    -0.75810   4.45620  -0.48090    67    66    71    68
 C    -0.62600   4.05840  -1.76630    68    67    69    14
 C     0.60490   3.67730  -2.26930    69    70    68    62
 C     0.50740   2.66240  -3.16850    70    69    65    16
 C    -1.96980   4.14230   0.01030    71    67    81    73
 C    -3.20730   2.94240   1.52330    72    73    77    79
 C    -2.13000   3.72040   1.32900    73    72    71    75
 C    -2.03980   1.59230   3.19780    74    50    77    49
 C    -0.98490   3.53550   2.13840    75    76    73    50
 C     0.19000   4.00860   1.59610    76    47    66    75
 C    -3.20840   1.95940   2.48560    77    85    72    74
 C    -4.68880   1.44100   0.91490    78    79    82    85
 C    -4.06950   2.55060   0.48880    79    78    80    72
 C    -3.74690   2.75020  -0.85680    80    81    79    95
 C    -2.70280   3.59650  -1.03370    81    80    14    71
 C    -5.04040   0.48320   0.02920    82    78    86    97
 C    -4.56950  -1.15780   1.65830    83    89    84    86
 C    -4.09940  -0.17840   2.48010    84    85    83    48
 C    -4.19020   1.09600   2.13910    85    84    77    78
 C    -5.02610  -0.82190   0.40790    86    82    93    83
 C    -2.38650  -3.81820   0.93270    87    92    88    54
 C    -3.57230  -3.14150   0.81510    88    87    89    94
 C    -3.82040  -2.26240   1.83970    89    83    88    58
 C    -3.14050  -3.09520  -1.53510    90    91    94   100
 C    -2.03440  -3.85800  -1.35440    91    92    90    28
 C    -1.66850  -4.24560  -0.12980    92    91    31    87
 C    -4.67520  -1.58980  -0.65940    93    86    94    98
 C    -3.99760  -2.77540  -0.49730    94    93    90    88
 C    -3.94100   1.67820  -1.78390    95    97    80    96
 C    -2.96450   1.44750  -2.82190    96    15    95    18
 C    -4.62790   0.57530  -1.28370    97    98    82    95
 C    -4.39720  -0.70710  -1.71810    98    97    99    93
 C    -3.43120  -0.97220  -2.67900    99   100    98    18
 C    -2.85370  -2.22130  -2.57690   100    99    13    90
