   100
C100-C1-424                                                                     
 C    -4.67580   0.76930  -0.92900     1     2     5    61
 C    -4.32090   1.98910  -0.39900     2    47     1     9
 C    -4.00930  -1.78120  -1.72540     3     4     6    60
 C    -3.74460  -0.74790  -2.52420     4     3     5    23
 C    -4.07730   0.51270  -2.15350     5     4     7     1
 C    -3.16770  -2.84480  -1.73410     6     3    67    21
 C    -3.16540   1.35220  -2.75880     7     8     5    13
 C    -2.81470   2.57740  -2.23620     8     7     9    10
 C    -3.45340   2.87060  -1.03220     9    29     2     8
 C    -1.52810   3.09560  -2.51360    10     8    11    15
 C    -0.96140   3.98890  -1.53700    11    12    28    10
 C     0.41610   4.11800  -1.50310    12    18    30    11
 C    -2.27560   0.57340  -3.47310    13    14    23     7
 C    -1.00770   0.98640  -3.78150    14    13    26    15
 C    -0.61870   2.31750  -3.35130    15    17    14    10
 C     1.66680   1.57860  -3.56850    16    17    42    27
 C     0.76640   2.56600  -3.25350    17    16    18    15
 C     1.26400   3.47110  -2.33490    18    12    17    41
 C    -1.15440  -4.26340  -0.74900    19    95    66    20
 C    -0.94880  -3.72150  -2.04690    20    21    98    19
 C    -2.00300  -2.92810  -2.53760    21    20     6    22
 C    -1.69340  -1.80770  -3.36230    22    23    25    21
 C    -2.61630  -0.75290  -3.30950    23     4    13    22
 C     0.72010  -2.37390  -3.29730    24    98    99    25
 C    -0.35530  -1.48200  -3.72320    25    22    26    24
 C    -0.05520  -0.07680  -3.98510    26    27    14    25
 C     1.26320   0.29700  -3.90520    27   100    26    16
 C    -1.61920   4.18770  -0.29020    28    29    32    11
 C    -2.82940   3.61250  -0.06860    29    28     9    46
 C     1.13230   4.34300  -0.34930    30    31    33    12
 C     0.49990   4.37780   0.81600    31    30    32    34
 C    -0.84270   4.31470   0.85710    32    31    44    28
 C     2.38850   3.82810  -0.43550    33    30    41    36
 C     1.06590   3.81380   1.92060    34    31    35    49
 C     2.33380   3.25460   1.89890    35    34    57    36
 C     3.08030   3.28660   0.65740    36    33    39    35
 C     4.63240   0.51540  -1.18720    37    86    94    38
 C     4.23140   1.84870  -0.99980    38    37    43    39
 C     4.04590   2.29920   0.35420    39    40    36    38
 C     4.27620   1.36310   1.36160    40    56    87    39
 C     2.50950   3.34010  -1.71410    41    43    33    18
 C     2.93780   1.50620  -3.02460    42    90    16    43
 C     3.39350   2.35450  -2.02130    43    41    42    38
 C    -1.16690   3.72280   2.06380    44    45    49    32
 C    -2.34380   3.06650   2.24650    45    44    46    52
 C    -3.22250   3.11760   1.16870    46    47    29    45
 C    -4.14100   2.15920   0.94740    47    48    46     2
 C    -4.22100   1.10270   1.77150    48    47    62    53
 C     0.00220   3.36450   2.69020    49    44    50    34
 C     0.08280   2.24960   3.50860    50    49    58    51
 C    -1.12360   1.46510   3.68820    51    52    55    50
 C    -2.33650   1.91770   3.08290    52    53    45    51
 C    -3.31070   0.96390   2.80020    53    69    48    52
 C     0.29460  -0.43650   4.02430    54    55    59    70
 C    -0.99150   0.04030   3.92220    55    54    68    51
 C     3.53080   1.32410   2.52090    56    80    40    57
 C     2.50420   2.20890   2.82810    57    56    35    58
 C     1.38170   1.70110   3.59030    58    59    50    57
 C     1.41780   0.35100   3.90410    59    81    54    58
 C    -4.55040  -1.57780  -0.47550    60    65    61     3
 C    -4.87490  -0.31410  -0.03770    61    60    62     1
 C    -4.59210  -0.11520   1.31130    62    48    63    61
 C    -3.95480  -1.05930   2.10200    63    64    69    62
 C    -3.63200  -2.31380   1.66260    64    63    65    73
 C    -4.00450  -2.55120   0.32920    65    67    60    64
 C    -2.23840  -4.01400   0.02550    66    67    19    74
 C    -3.25470  -3.35770  -0.46720    67    66    65     6
 C    -1.97450  -0.92410   3.53000    68    69    55    72
 C    -3.14180  -0.39000   3.00380    69    53    63    68
 C     0.66540  -1.73680   3.68680    70    71    84    54
 C    -0.23010  -2.66280   3.19410    71    70    76    72
 C    -1.61880  -2.27360   3.13250    72    73    71    68
 C    -2.47460  -2.93860   2.18540    73    74    64    72
 C    -1.84420  -3.84960   1.34230    74    77    66    73
 C     1.74920  -3.56510   1.93110    75    78    83    76
 C     0.35940  -3.62210   2.31230    76    77    71    75
 C    -0.52260  -4.15360   1.39220    77    74    95    76
 C     2.05610  -3.95210   0.61620    78    96    88    75
 C     4.16100  -0.79090   2.02800    79    80    87    82
 C     3.49670   0.00800   2.90410    80    81    79    56
 C     2.44530  -0.46620   3.56280    81    80    59    84
 C     3.75180  -2.10800   1.75460    82    79    89    83
 C     2.62140  -2.61020   2.48340    83    84    75    82
 C     2.01210  -1.74220   3.38300    84    81    70    83
 C     4.49880  -1.62720  -0.49950    85    86    89    93
 C     4.85840  -0.34520  -0.15300    86    87    37    85
 C     4.68500   0.06930   1.09960    87    86    79    40
 C     3.07780  -3.41520  -0.11350    88    89    78    91
 C     3.96370  -2.52270   0.41690    89    88    85    82
 C     3.30280   0.20660  -3.09100    90    94    42   100
 C     2.63830  -3.35770  -1.44900    91    97    92    88
 C     3.04800  -2.39050  -2.31310    92    91    93    99
 C     4.05240  -1.56530  -1.81330    93    94    85    92
 C     4.17320  -0.27630  -2.20630    94    90    93    37
 C    -0.13700  -4.47320   0.11390    95    96    19    77
 C     1.10260  -4.32750  -0.27190    96    95    78    97
 C     1.39100  -3.88740  -1.53620    97    91    96    98
 C     0.38970  -3.47680  -2.43740    98    97    20    24
 C     2.07300  -1.88290  -3.23160    99   100    92    24
 C     2.28080  -0.56060  -3.58940   100    27    90    99
