   100
C100-C1-11                                                                      
 C     2.97470  -3.55810  -0.24120     1     7    54     2
 C     3.78240  -2.83070   0.65210     2     1    78    10
 C     3.42960  -1.40880   2.64250     3    10     4    11
 C     4.38730  -0.55290   2.06670     4     5    76     3
 C     4.35340   0.79530   2.26350     5     6     4    19
 C     3.34220   1.31680   2.98740     6     5    20    12
 C     1.77610  -4.08640   0.06210     7     8     1    14
 C     1.28210  -3.93020   1.28040     8     7    15     9
 C     1.93830  -3.16150   2.18720     9     8    28    10
 C     3.18100  -2.59790   1.94040    10     9     3     2
 C     2.35660  -0.81140   3.43050    11    12    29     3
 C     2.36550   0.56010   3.54080    12     6    11    33
 C    -0.44180  -4.04450  -0.86780    13    14    65    16
 C     0.91540  -4.06640  -1.00120    14    63    13     7
 C    -0.05030  -3.90650   1.47180    15     8    91    16
 C    -0.98200  -4.06620   0.46220    16    97    15    13
 C     4.25120   2.62000   0.79880    17    39    19    18
 C     3.23760   3.13840   1.55050    18    20    27    17
 C     4.83450   1.44280   1.16290    19    50    17     5
 C     2.79070   2.50020   2.63810    20    18     6    21
 C     1.48190   2.50940   2.98290    21    20    33    25
 C    -1.77160   3.35360   1.61270    22    23    24    46
 C    -3.05980   2.84230   1.67080    23    89    36    22
 C    -0.82110   2.85980   2.53050    24    25    22    35
 C     0.51480   3.23260   2.30410    25    21    24    26
 C     0.96360   3.86250   1.08430    26    27    47    25
 C     2.31390   3.74470   0.75520    27    18    40    26
 C     0.93720  -2.61150   2.96550    28    29    91     9
 C     1.06230  -1.38350   3.56600    29    28    11    31
 C    -1.45110  -1.20920   3.43110    30    94    31    92
 C    -0.17010  -0.63070   3.74800    31    32    30    29
 C    -0.06850   0.80210   3.71190    32    33    35    31
 C     1.20320   1.30920   3.61060    33    32    21    12
 C    -2.42250   1.05100   3.16560    34    36    35    94
 C    -1.14590   1.63930   3.29600    35    34    32    24
 C    -3.39710   1.74800   2.44300    36    87    23    34
 C     3.40690   1.93320  -2.51890    37    51    43    38
 C     4.33730   1.97500  -1.48870    38    39    37    49
 C     3.97100   2.88140  -0.50360    39    17    38    40
 C     2.77450   3.60030  -0.53280    40    42    27    39
 C     0.50110   3.76330  -1.32520    41    42    45    47
 C     1.86220   3.52350  -1.55120    42    40    43    41
 C     2.23180   2.66040  -2.55770    43    42    73    37
 C    -1.73590   3.21600  -1.91820    44    45    75    48
 C    -0.43470   3.18330  -2.24850    45    44    72    41
 C    -1.32470   3.87130   0.34300    46    48    47    22
 C     0.02950   4.01260   0.03620    47    46    26    41
 C    -2.21010   3.65460  -0.70170    48    90    44    46
 C     4.98160   0.75980  -1.11950    49    53    50    38
 C     5.18650   0.50510   0.24070    50    19    49    76
 C     3.12040   0.79060  -3.19870    51    52    37    57
 C     3.74930  -0.33610  -2.89220    52    51    56    53
 C     4.66440  -0.37440  -1.85600    53    77    52    49
 C     2.86880  -3.25520  -1.57290    54    55     1    63
 C     3.62170  -2.29940  -2.07390    55    54    56    77
 C     3.05850  -1.49500  -3.02300    56    52    55    59
 C     1.81930   0.76940  -3.62800    57    73    51    58
 C     1.04030  -0.38410  -3.78780    58    57    59    67
 C     1.70650  -1.59060  -3.44980    59    62    58    56
 C    -1.18480  -1.39070  -3.38640    60    70    67    61
 C    -0.48490  -2.58220  -2.90130    61    62    65    60
 C     0.92990  -2.65340  -2.95030    62    63    59    61
 C     1.58570  -3.47270  -2.02190    63    14    54    62
 C    -2.45970  -3.12760  -1.60400    64    65    71    96
 C    -1.16190  -3.38860  -1.90040    65    64    13    61
 C    -0.95400   1.08450  -3.53040    66    74    72    67
 C    -0.37910  -0.24080  -3.74310    67    58    60    66
 C    -4.34630   0.27330  -2.21210    68    80    85    69
 C    -3.16430   0.09900  -2.99580    69    74    70    68
 C    -2.55890  -1.19250  -3.04080    70    71    69    60
 C    -3.18730  -2.13820  -2.21380    71    81    64    70
 C    -0.05310   2.16750  -3.17930    72    73    45    66
 C     1.28090   1.96780  -3.27740    73    72    57    43
 C    -2.31000   1.21980  -3.16620    74    75    66    69
 C    -2.68110   2.36200  -2.44010    75    83    44    74
 C     4.96410  -0.75840   0.81350    76    78     4    50
 C     4.54580  -1.63490  -1.30750    77    55    53    78
 C     4.64070  -1.86970   0.06930    78    76    77     2
 C    -5.45620  -0.18140  -0.29250    79    84    82    80
 C    -4.90930  -0.71250  -1.44900    80    81    68    79
 C    -4.28790  -1.89370  -1.43650    81    80    95    71
 C    -5.19100  -0.83690   0.89000    82    98    86    79
 C    -3.78800   2.44100  -1.65540    83    85    75    90
 C    -5.30070   1.16870  -0.35860    84    79    85    88
 C    -4.66240   1.43550  -1.55080    85    83    68    84
 C    -4.67870  -0.14370   1.95670    86    87    82    93
 C    -4.51900   1.18780   1.87580    87    86    88    36
 C    -4.86970   1.87390   0.74520    88    89    87    84
 C    -3.96260   2.87110   0.62960    89    90    88    23
 C    -3.46920   3.20570  -0.56940    90    89    48    83
 C    -0.28370  -3.10680   2.56710    91    92    15    28
 C    -1.49140  -2.51010   2.79720    92    91   100    30
 C    -3.71860  -0.90520   2.59290    93    86    99    94
 C    -2.58850  -0.37320   3.24540    94    93    30    34
 C    -4.16410  -2.59710  -0.27860    95    96    98    81
 C    -3.04330  -3.34080  -0.35250    96    95    97    64
 C    -2.25750  -3.63750   0.74720    97    16    96   100
 C    -4.55570  -2.03590   0.89050    98    95    82    99
 C    -3.68480  -2.12640   1.94950    99   100    98    93
 C    -2.55970  -2.90840   1.95540   100    99    92    97
