   100
C100-C2-293                                                                     
 C     3.98930   2.24090   1.19170     1    60     2     4
 C     4.71110   1.42160   0.31080     2     3    40     1
 C     5.00640   0.14040   0.57550     3     2     6    15
 C     3.38950   1.58820   2.33980     4     5     9     1
 C     3.68760   0.25380   2.51650     5     6     4    23
 C     4.54700  -0.44450   1.70430     6    16     3     5
 C     0.37160   3.55890   2.40770     7     8    11    74
 C     1.67880   3.19850   2.34430     8     7     9    59
 C     2.14200   2.00810   2.87550     9     8     4    12
 C    -1.85260   2.99930   2.52010    10    93    11    75
 C    -0.58410   2.74280   2.98360    11    10     7    21
 C     1.15430   1.08010   3.44570    12    22    21     9
 C     4.62180  -1.85440  -0.57560    13    15    30    14
 C     4.31610  -2.48590   0.60530    14    18    16    13
 C     4.96040  -0.57330  -0.60110    15    13    39     3
 C     4.20280  -1.74220   1.72660    16     6    14    17
 C     3.11890  -1.89610   2.54650    17    16    20    23
 C     3.40540  -3.43770   0.35980    18    14    31    19
 C     2.37910  -3.77170   1.25120    19    34    18    20
 C     2.19140  -2.89970   2.39180    20    17    25    19
 C    -0.24760   1.44280   3.48220    21    11    12    26
 C     1.49090  -0.30970   3.48240    22    23    12    28
 C     2.77840  -0.65160   3.05420    23    17     5    22
 C    -0.09820  -3.43760   2.41880    24   100    25    33
 C     0.89980  -2.63620   2.92370    25    24    20    28
 C    -1.29600   0.42080   3.52170    26    27    94    21
 C    -0.92510  -0.97620   3.50140    27    26    99    28
 C     0.48820  -1.34250   3.47210    28    22    27    25
 C     2.02790  -3.77330  -1.48880    29    31    32    35
 C     3.81450  -2.33320  -1.56710    30    31    13    37
 C     3.17580  -3.38240  -1.00130    31    29    30    18
 C     1.11760  -4.37640  -0.70420    32    29    56    34
 C     0.07240  -4.28420   1.32500    33    34    57    24
 C     1.25890  -4.36760   0.68990    34    33    19    32
 C     1.40000  -3.08530  -2.49770    35    44    29    36
 C     1.90340  -1.89340  -3.02790    36    35    37    49
 C     3.20370  -1.52130  -2.56700    37    38    30    36
 C     3.57480  -0.17140  -2.58160    38    37    39    41
 C     4.51820   0.24540  -1.59380    39    40    15    38
 C     4.51270   1.48970  -1.05740    40    43    39     2
 C     2.63720   0.79400  -3.06000    41    42    38    50
 C     2.83620   2.08770  -2.56130    42    68    43    41
 C     3.73190   2.40470  -1.56000    43    40    61    42
 C     0.08600  -3.41240  -2.42120    44    35    47    56
 C     0.24680   1.47380  -3.46110    45    67    66    50
 C    -1.49300  -0.27640  -3.46650    46    51    66    48
 C    -0.90910  -2.60720  -2.92150    47    44    54    48
 C    -0.49490  -1.31260  -3.46140    48    46    49    47
 C     0.91740  -0.94470  -3.49090    49    50    36    48
 C     1.29340   0.44870  -3.50560    50    49    41    45
 C    -2.78220  -0.62510  -3.03610    51    55    80    46
 C    -3.41360  -3.42960  -0.36950    52    86    91    53
 C    -2.38620  -3.75800  -1.26240    53    58    52    54
 C    -2.20260  -2.87220  -2.39360    54    55    47    53
 C    -3.13220  -1.87160  -2.53920    55    87    54    51
 C    -0.09130  -4.26850  -1.33670    56    58    32    44
 C    -1.13270  -4.39290   0.69460    57    89    33    58
 C    -1.27440  -4.36430  -0.69540    58    56    53    57
 C     2.24940   3.83770   1.24980    59    60    65     8
 C     3.33110   3.32170   0.60640    60    59     1    61
 C     3.23260   3.39220  -0.79340    61    43    62    60
 C     2.13150   3.86950  -1.42920    62    64    61    68
 C    -0.09440   4.41830  -1.31290    63    72    64    71
 C     1.14980   4.51490  -0.76640    64    62    63    65
 C     1.22970   4.50630   0.61560    65    74    59    64
 C    -1.15780   1.11400  -3.42550    66    46    45    69
 C     0.58810   2.77060  -2.95940    67    68    71    45
 C     1.85770   3.01840  -2.50440    68    42    67    62
 C    -2.14870   2.03610  -2.85140    69    70    81    66
 C    -1.67790   3.22070  -2.31530    70    71    69    76
 C    -0.37260   3.57150  -2.38020    71    70    67    63
 C    -1.22650   4.50620  -0.56070    72    63    76    73
 C    -1.14040   4.52180   0.82130    73    75    74    72
 C     0.09850   4.43260   1.35990    74    73    65     7
 C    -2.13260   3.86340   1.45410    75    73    78    10
 C    -2.24360   3.84940  -1.21340    76    77    72    70
 C    -3.32710   3.32900  -0.57750    77    76    84    78
 C    -3.23240   3.37620   0.82230    78    92    75    77
 C    -4.55690  -0.41740  -1.69700    79    87    82    80
 C    -3.69610   0.28320  -2.50680    80    79    81    51
 C    -3.39560   1.61380  -2.31930    81    80    69    84
 C    -5.00980   0.14790  -0.55360    82    83    79    88
 C    -4.70880   1.42800  -0.29170    83    82    95    84
 C    -3.99320   2.25630  -1.16440    84    77    83    81
 C    -4.63320  -1.85630   0.57860    85    88    90    86
 C    -4.32490  -2.47550  -0.60820    86    52    87    85
 C    -4.21990  -1.72100  -1.72190    87    79    86    55
 C    -4.97280  -0.57600   0.61390    88    85    96    82
 C    -2.04060  -3.79230   1.48330    89    91    57   100
 C    -3.82660  -2.34380   1.56800    90    91    85    98
 C    -3.18660  -3.38980   0.99410    91    89    90    52
 C    -3.71980   2.38170   1.58900    92    95    78    93
 C    -2.82750   2.06490   2.59090    93    10    92    94
 C    -2.64050   0.76680   3.08200    94    93    97    26
 C    -4.50440   1.47020   1.07760    95    92    96    83
 C    -4.52580   0.22620   1.61850    96    95    88    97
 C    -3.58020  -0.19480   2.60290    97    98    94    96
 C    -3.21140  -1.54510   2.57830    98    97    90    99
 C    -1.91280  -1.92340   3.03440    99   100    98    27
 C    -1.41550  -3.11300   2.50160   100    24    89    99
