   100
C100-C1-100                                                                     
 C     2.59570   3.32630   1.37760     1     6     2    61
 C     3.37520   3.15290   0.25910     2     1     3     9
 C     4.39330   2.19940   0.38800     3     4    60     2
 C     4.82670   1.47400  -0.67020     4     3     5    19
 C     4.21100   1.63270  -1.86700     5     4    20    10
 C     1.30730   3.77670   1.32800     6     1     7    78
 C     0.66000   4.09120   0.14750     7     6    15     8
 C     1.37570   3.78690  -1.07360     8     9    12     7
 C     2.72410   3.34130  -0.99190     9    10     8     2
 C     3.18070   2.51800  -2.02090    10     5    29     9
 C    -0.77800   3.51400  -2.08480    11    12    16    30
 C     0.57700   3.37380  -2.20080    12    11    28     8
 C    -2.76830   3.28440   1.27590    13    79    97    14
 C    -1.45520   3.71430   1.43110    14    13    77    15
 C    -0.74250   4.11750   0.23660    15    16     7    14
 C    -1.42940   3.93840  -0.95000    16    98    11    15
 C     4.93190  -0.83720  -1.04370    17    19    35    18
 C     4.33970  -0.65240  -2.27340    18    20    27    17
 C     5.16990   0.21870  -0.23480    19    17    44     4
 C     3.96360   0.56870  -2.67110    20    18     5    21
 C     2.78990   0.74900  -3.33980    21    20    29    25
 C    -0.42640  -1.01070  -3.79520    22    23    38    24
 C    -1.75590  -0.63840  -3.68330    23    52    33    22
 C     0.56100   0.03970  -3.91840    24    25    22    32
 C     1.91710  -0.28800  -3.69860    25    21    24    26
 C     2.29540  -1.59500  -3.26950    26    37    27    25
 C     3.51260  -1.69320  -2.54520    27    18    36    26
 C     1.03090   2.37000  -3.12100    28    29    12    32
 C     2.33060   2.00430  -2.98880    29    28    21    10
 C    -1.67830   2.75620  -2.80260    30    11    31    93
 C    -1.24740   1.68670  -3.56500    31    33    30    32
 C     0.11690   1.42510  -3.71740    32    31    28    24
 C    -2.17290   0.67470  -3.61240    33    31    23    95
 C     2.70420  -3.35810  -1.18440    34    36    39    40
 C     4.46580  -2.00220  -0.50450    35    17    36    42
 C     3.68100  -2.54310  -1.48540    36    34    35    27
 C     1.28020  -2.54490  -2.99160    37    39    26    38
 C    -0.09700  -2.30790  -3.26110    38    37    22    54
 C     1.57100  -3.42890  -1.94190    39    56    34    37
 C     2.42690  -3.66220   0.11710    40    46    34    41
 C     3.06360  -3.04610   1.19120    41    40    50    42
 C     4.16060  -2.17380   0.86640    42    43    35    41
 C     4.41380  -1.04780   1.68200    43    45    44    42
 C     4.92340   0.13180   1.10430    44    19    60    43
 C     3.54690  -0.85970   2.74210    45    51    43    58
 C     1.14060  -4.07740   0.12730    46    40    48    56
 C    -0.98940  -4.02990   0.95140    47    68    48    57
 C     0.34530  -3.97910   1.23700    48    47    46    49
 C     0.83740  -3.27650   2.37130    49    48    50    70
 C     2.20190  -2.82750   2.31570    50    51    41    49
 C     2.49980  -1.70100   3.05460    51    45    50    72
 C    -2.74820  -1.39800  -3.10010    52    88    23    53
 C    -2.48230  -2.59200  -2.45300    53    52    54    91
 C    -1.13200  -3.05250  -2.52960    54    55    53    38
 C    -0.69890  -3.86490  -1.44280    55    56    57    54
 C     0.61700  -3.98320  -1.16720    56    39    55    46
 C    -1.51590  -4.02150  -0.34450    57    92    55    47
 C     3.18480   0.39970   3.18370    58    59    62    45
 C     3.64340   1.53320   2.55950    59    60    61    58
 C     4.50370   1.38750   1.51800    60    59    44     3
 C     2.72070   2.53860   2.50320    61    59    67     1
 C     1.93600   0.31840   3.76140    62    72    58    66
 C    -2.05630  -0.55390   3.65950    63    73    64    74
 C    -0.74850  -0.26370   3.96990    64    63    71    65
 C    -0.34590   1.12210   3.87640    65    66    64    76
 C     1.03340   1.36930   3.77900    66    67    62    65
 C     1.48740   2.48300   3.10220    67    78    61    66
 C    -1.93190  -3.50060   1.76110    68    47    84    69
 C    -1.54670  -2.74630   2.85860    69    73    68    70
 C    -0.17140  -2.57530   3.16160    70    69    71    49
 C     0.19970  -1.33710   3.79550    71    72    70    64
 C     1.52180  -0.98580   3.72060    72    62    71    51
 C    -2.46820  -1.76300   3.15990    73    63    69    87
 C    -2.97850   0.38610   3.26090    74    63    75    80
 C    -2.60190   1.69880   3.05370    75    74    79    76
 C    -1.27600   2.09670   3.32220    76    75    77    65
 C    -0.73480   3.17600   2.52400    77    78    14    76
 C     0.62260   3.30050   2.44030    78    67    77     6
 C    -3.34750   2.32580   2.06350    79    13    75    83
 C    -3.98500  -0.24070   2.54370    80    87    82    74
 C    -5.02410  -0.36100   0.42730    81    99    85    82
 C    -4.68990   0.39540   1.54510    82    83    80    81
 C    -4.35640   1.70630   1.32360    83    82    96    79
 C    -3.07710  -3.27270   1.02360    84    86    68    92
 C    -4.65430  -1.69750   0.34230    85    86    90    81
 C    -3.98930  -2.32050   1.37540    86    84    87    85
 C    -3.65520  -1.57070   2.47330    87    86    80    73
 C    -3.76720  -0.55330  -2.72140    88    89    95    52
 C    -4.56130  -0.83260  -1.66900    89    88    90    99
 C    -4.34500  -1.98280  -0.98110    90    89    85    91
 C    -3.34280  -2.88450  -1.34570    91    92    90    53
 C    -2.78390  -3.56210  -0.29570    92    57    91    84
 C    -2.90240   2.79200  -2.15540    93    98    94    30
 C    -3.84590   1.78540  -2.22020    94    93    95   100
 C    -3.41550   0.72810  -3.00420    95    88    33    94
 C    -4.36950   2.25860   0.05810    96    97    83   100
 C    -3.41490   3.23510   0.06820    97    98    96    13
 C    -2.71640   3.52490  -1.02750    98    97    16    93
 C    -4.99050   0.18450  -0.84550    99    89    81   100
 C    -4.64620   1.50610  -1.08580   100    99    96    94
