   100
C100-C1-7                                                                       
 C     3.24900  -2.33280  -2.11920     1     2     8    58
 C     3.58810  -1.14260  -2.67260     2     1     3     7
 C     4.60600  -0.47560  -1.98240     3     4     2    57
 C     4.68160   0.88470  -2.00260     4     5     3    12
 C     3.69030   1.54970  -2.64100     5    13     4     6
 C     2.66310   0.91380  -3.28980     6     5    28     7
 C     2.53900  -0.45590  -3.36910     7     6     2    23
 C     2.02950  -2.88220  -2.35940     8    64     1     9
 C     0.97270  -2.29520  -3.09360     9     8    22    23
 C     4.63960   2.47810  -0.27960    10    36    11    12
 C     3.64570   3.13270  -0.93970    11    13    10    20
 C     5.19620   1.34380  -0.82230    12    35     4    10
 C     3.18860   2.69280  -2.12500    13    11    14     5
 C     1.89050   2.81450  -2.46950    14    13    18    28
 C    -1.33430   3.65270  -1.07260    15    16    17    44
 C    -2.65230   3.30220  -1.27900    16    96    15    32
 C    -0.38760   3.22680  -2.01980    17    18    15    31
 C     0.94770   3.46010  -1.70150    18    14    17    19
 C     1.38170   3.82950  -0.37700    19    20    45    18
 C     2.70670   3.59780  -0.05260    20    11    37    19
 C    -0.45180  -3.70610  -1.80400    21    84    63    22
 C    -0.34220  -2.75460  -2.83560    22    21    24     9
 C     1.20880  -0.97690  -3.55850    23     9     7    26
 C    -1.50250  -1.98420  -3.09380    24    22    98    25
 C    -1.30110  -0.60530  -3.51630    25    29    26    24
 C     0.04160  -0.10850  -3.68020    26    25    27    23
 C     0.25660   1.30470  -3.45270    27    28    31    26
 C     1.54990   1.72400  -3.25590    28    27     6    14
 C    -2.37580   0.32150  -3.29320    29   100    25    30
 C    -2.08800   1.69670  -2.99280    30    31    32    29
 C    -0.76890   2.16630  -2.97070    31    30    27    17
 C    -3.04210   2.38380  -2.23200    32    94    16    30
 C     5.14610   0.29990   1.28480    33    35    48    34
 C     4.56710   1.45020   1.80660    34    36    43    33
 C     5.43820   0.24630  -0.04790    35    12    33    57
 C     4.29790   2.51750   1.03450    36    34    10    37
 C     3.10560   3.18480   1.20180    37    36    20    41
 C    -0.21780   2.64010   2.72130    38    39    51    40
 C    -1.50390   2.89510   2.36140    39    38    46    79
 C     0.81850   3.27500   1.95980    40    41    38    45
 C     2.15410   2.88500   2.17850    41    37    40    42
 C     2.43650   1.77160   3.01610    42    43    50    41
 C     3.65130   1.09140   2.75290    43    49    34    42
 C    -0.90280   3.89260   0.27970    44    46    45    15
 C     0.43240   3.83700   0.65870    45    44    19    40
 C    -1.86100   3.59360   1.22700    46    97    39    44
 C     2.70280  -0.93620   3.28790    47    49    53    52
 C     4.60280  -0.78480   1.91700    48    33    49    55
 C     3.75530  -0.26510   2.85830    49    47    43    48
 C     1.34520   1.03810   3.55450    50    52    51    42
 C     0.00150   1.43670   3.46940    51    50    38    78
 C     1.54820  -0.33030   3.67950    52    47    72    50
 C     2.42870  -2.18220   2.82600    53    47    65    54
 C     3.18330  -2.75940   1.79920    54    53    60    55
 C     4.30180  -2.00750   1.29020    55    48    56    54
 C     4.58280  -2.02230  -0.10720    56    58    57    55
 C     5.10430  -0.89730  -0.73780    57    35    56     3
 C     3.72110  -2.76990  -0.86780    58    61    56     1
 C     1.02760  -3.89890   1.31050    59    62    67    60
 C     2.40260  -3.60810   1.00070    60    61    54    59
 C     2.74560  -3.56780  -0.35570    61    64    58    60
 C     0.20130  -4.22300   0.25110    62    70    63    59
 C     0.59620  -4.08380  -1.04070    63    64    21    62
 C     1.80650  -3.72600  -1.31820    64    63    61     8
 C     1.08840  -2.38840   3.06670    65    67    53    72
 C    -1.10380  -3.06540   2.39660    66    69    67    76
 C     0.31520  -3.27300   2.37830    67    65    59    66
 C    -3.08710  -3.16660   1.02380    68    69    77    82
 C    -1.84020  -3.61010   1.32120    69    68    70    66
 C    -1.13760  -4.09680   0.25070    70    62    69    84
 C    -0.79780  -0.92590   3.59110    71    72    76    78
 C     0.53650  -1.24460   3.61860    72    52    71    65
 C    -4.52810   0.32860   2.05870    73    92    87    74
 C    -3.42890  -0.11680   2.86060    74    75    80    73
 C    -3.02610  -1.48170   2.72790    75    77    76    74
 C    -1.70550  -1.90160   3.06070    76    75    71    66
 C    -3.73350  -2.20460   1.74690    77    68    88    75
 C    -1.11360   0.47880   3.60130    78    80    71    51
 C    -2.58840   2.10940   2.69300    79    90    39    80
 C    -2.42860   0.83600   3.23090    80    79    78    74
 C    -4.57400  -2.20590  -0.29140    81    82    85    88
 C    -3.57520  -3.09640  -0.28720    82    81    83    68
 C    -2.72380  -3.27880  -1.36370    83    84    82    98
 C    -1.56350  -3.85900  -1.05500    84    83    21    70
 C    -4.74130  -1.41650  -1.38320    85    89    81    99
 C    -5.52930   0.33300   0.03100    86    91    89    87
 C    -5.17610  -0.44420   1.12370    87    88    73    86
 C    -4.73500  -1.69070   0.96540    88    87    81    77
 C    -5.22580  -0.15870  -1.22580    89    85    93    86
 C    -3.63030   2.45530   1.88420    90    92    97    79
 C    -5.20580   1.62140   0.32380    91    86    95    92
 C    -4.62320   1.60850   1.57480    92    90    73    91
 C    -4.53690   0.60870  -2.12860    93    94    89   100
 C    -4.25130   1.88330  -1.82360    94    93    95    32
 C    -4.61380   2.42710  -0.62040    95    96    94    91
 C    -3.61030   3.27110  -0.29530    96    97    95    16
 C    -3.15390   3.33610   0.96320    97    96    46    90
 C    -2.73800  -2.34550  -2.43680    98    99    83    24
 C    -3.77060  -1.43870  -2.37660    99   100    98    85
 C    -3.60980  -0.15150  -2.81220   100    99    93    29
