   100
C100-C1-255                                                                     
 C    -4.54740   0.70270  -1.31740     1    21     3     2
 C    -4.09520  -0.05860  -2.34420     2     4     1     6
 C    -4.78630   0.14890  -0.10850     3     1    67    29
 C    -3.93160  -1.37530  -2.15950     4     2    70     5
 C    -2.87390  -2.00860  -2.73240     5     4    16     8
 C    -3.20520   0.65370  -3.07940     6     2    22     7
 C    -2.10790   0.07580  -3.70500     7     6    24     8
 C    -1.93930  -1.35740  -3.53850     8     5    10     7
 C    -0.32300  -3.13850  -2.83320     9    17    15    10
 C    -0.67230  -1.96080  -3.60560    10    14     8     9
 C     3.23950  -2.32400  -2.29880    11   100    94    12
 C     2.06100  -2.48400  -3.02450    12    13    11    17
 C     1.66910  -1.35060  -3.69170    13    14    12    96
 C     0.35660  -1.09740  -3.96000    14    13    10    23
 C    -1.29970  -3.65130  -1.89360    15    16    74     9
 C    -2.54480  -3.06900  -1.89610    16    15     5    69
 C     1.06100  -3.37440  -2.56170    17    18    12     9
 C     1.38110  -4.05260  -1.38630    18    71    98    17
 C    -2.69980   3.56340  -0.46200    19    31    20    27
 C    -3.69950   2.66210  -0.26830    20    19    21    28
 C    -3.98410   1.91900  -1.40420    21     1    20    22
 C    -3.16660   1.92030  -2.54330    22    26     6    21
 C     0.21020   0.28420  -4.07240    23    24    44    14
 C    -0.98610   0.93440  -3.89020    24    23     7    25
 C    -0.91610   2.28590  -3.37900    25    26    24    46
 C    -2.07170   2.73100  -2.66720    26    22    27    25
 C    -1.93010   3.62840  -1.63240    27    48    26    19
 C    -3.86360   2.08380   1.03420    28    29    33    20
 C    -4.40200   0.80050   1.03500    29     3    30    28
 C    -4.03610  -0.17950   1.94040    30    35    29    66
 C    -1.94030   4.01850   0.56290    31    19    40    32
 C    -2.04410   3.48210   1.84720    32    38    31    33
 C    -2.97440   2.42950   2.09960    33    32    28    34
 C    -2.61020   1.41150   3.08120    34    36    35    33
 C    -3.14000   0.06780   2.95940    35    30    51    34
 C    -1.34290   1.54650   3.72140    36    39    37    34
 C    -0.67400   0.42390   4.14190    37    50    36    61
 C    -0.84330   3.53380   2.53580    38    39    43    32
 C    -0.49300   2.58140   3.43790    39    38    36    59
 C    -0.75450   4.47650   0.02100    40    42    31    48
 C     1.55300   4.34370   0.06820    41    42    85    49
 C     0.38870   4.53060   0.74810    42    40    41    43
 C     0.33120   4.05450   2.02580    43    42    87    38
 C     1.43790   0.86640  -3.82230    44    96    23    45
 C     1.59340   2.14360  -3.29660    45    44    90    46
 C     0.37600   2.88280  -3.05840    46    47    45    25
 C     0.41500   3.87390  -2.02730    47    48    49    46
 C    -0.73840   4.18160  -1.33250    48    27    47    40
 C     1.57760   4.02750  -1.29090    49    91    47    41
 C    -1.19960  -0.81660   4.00760    50    37    53    51
 C    -2.42050  -1.08090   3.39890    51    50    35    52
 C    -2.52540  -2.35110   2.72280    52    55    65    51
 C    -0.13200  -1.66040   3.98080    53    54    50    62
 C    -0.23630  -2.82300   3.38120    54    53    58    55
 C    -1.40500  -3.17030   2.75040    55    72    54    52
 C     1.04420  -4.38520   0.74790    56    57    83    71
 C     0.32130  -4.14100   1.81640    57    56    58    72
 C     0.85750  -3.36450   2.80290    58    54    57    64
 C     0.90230   2.48320   3.45840    59    87    60    39
 C     1.57360   1.30680   3.74350    60    61    59    76
 C     0.73060   0.31050   4.14150    61    62    60    37
 C     1.06340  -0.99650   3.99610    62    61    53    63
 C     2.23180  -1.45360   3.36600    63    62    64    77
 C     2.12510  -2.73730   2.74100    64    82    58    63
 C    -3.35830  -2.51450   1.60490    65    66    52    68
 C    -4.16480  -1.42110   1.30750    66    67    65    30
 C    -4.63570  -1.18540   0.05730    67    70     3    66
 C    -2.94390  -3.36920   0.49610    68    69    73    65
 C    -3.37090  -2.98540  -0.76980    69    70    68    16
 C    -4.21930  -1.95730  -0.96960    70    69    67     4
 C     0.43290  -4.44120  -0.48540    71    18    56    74
 C    -1.03750  -4.00680   1.72860    72    57    55    73
 C    -1.73100  -4.07660   0.52620    73    72    68    74
 C    -0.92940  -4.26220  -0.66070    74    71    15    73
 C     3.31340   1.98170   2.20920    75    78    86    76
 C     2.80830   0.97210   3.10350    76    60    75    77
 C     3.13890  -0.44710   2.89040    77    63    80    76
 C     4.10640   1.53510   1.16590    78    79    75    88
 C     4.42600   0.21890   0.96780    79    78    97    80
 C     3.97350  -0.82880   1.78520    80    79    81    77
 C     3.85310  -2.10960   1.14650    81    82    99    80
 C     2.91240  -3.05390   1.61690    82    64    81    83
 C     2.31620  -3.91170   0.65050    83    98    56    82
 C     3.35280   3.19160  -0.32140    84    88    85    91
 C     2.63740   3.74820   0.67440    85    84    41    86
 C     2.59310   3.19090   1.95950    86    87    85    75
 C     1.40180   3.39890   2.59710    87    59    86    43
 C     4.11950   2.14090  -0.08030    88    84    92    78
 C     3.71830   1.27840  -2.30270    89    95    92    90
 C     2.79080   2.34700  -2.53010    90    91    89    45
 C     2.70430   3.30690  -1.53370    91    49    84    90
 C     4.36060   1.23470  -1.04480    92    88    97    89
 C     4.47190  -1.08140  -0.97970    93    97    99    94
 C     3.91270  -1.12670  -2.23300    94    93    11    95
 C     3.49010   0.02330  -2.88360    95    96    94    89
 C     2.35020  -0.14450  -3.62500    96    95    44    13
 C     4.65890   0.07880  -0.38910    97    93    92    79
 C     2.54560  -3.81690  -0.68390    98   100    83    18
 C     4.12600  -2.16700  -0.24390    99    93   100    81
 C     3.44870  -2.96760  -1.11540   100    98    11    99
