   100
C100-C1-171                                                                     
 C    -3.14000  -1.64410   2.61690     1     2     6    68
 C    -3.51660  -0.34770   2.72250     2     1     3     9
 C    -4.42570   0.05930   1.73600     3     4    65     2
 C    -4.49900   1.34990   1.37200     4     3     5    21
 C    -3.70430   2.27040   1.94830     5     4    22    10
 C    -1.91150  -2.08460   3.07290     6    73     1     7
 C    -0.93120  -1.24560   3.60980     7     6    17     8
 C    -1.27490   0.15810   3.70140     8     9     7    12
 C    -2.58880   0.57300   3.28100     9    10     2     8
 C    -2.74880   1.88640   2.85770    10     5    14     9
 C     1.12930   0.64790   3.70330    11    15    12    16
 C    -0.20080   1.13040   3.68400    12    11     8    13
 C    -0.43060   2.46800   3.14060    13    14    25    12
 C    -1.70640   2.77470   2.74850    14    13    10    23
 C     2.12030   1.53140   3.24130    15    98    26    11
 C     1.44440  -0.75490   3.64590    16    18    17    11
 C     0.41540  -1.73100   3.52450    17    16     7    76
 C     2.71710  -1.08830   3.15650    18    77    97    16
 C    -4.21890   2.40490  -0.67990    19    21    20    30
 C    -3.51330   3.40110  -0.07340    20    40    22    19
 C    -4.74660   1.39930   0.02600    21    19    29     4
 C    -3.22950   3.32380   1.25060    22     5    20    23
 C    -1.99990   3.67050   1.72710    23    22    24    14
 C    -1.01260   4.24770   0.94720    24    23    38    39
 C     0.59660   3.24460   2.51170    25    26    13    38
 C     1.86620   2.74260   2.63470    26    25    15    41
 C    -4.26850  -0.20350  -1.72190    27    47    29    28
 C    -3.59670   0.86170  -2.44610    28    30    35    27
 C    -4.80120   0.13620  -0.46060    29    21    65    27
 C    -3.62970   2.13520  -1.88630    30    31    19    28
 C    -2.62020   3.04260  -2.05270    31    30    33    40
 C    -0.41150   3.47530  -2.47790    32    55    33    37
 C    -1.52190   2.76420  -2.83340    33    32    31    34
 C    -1.36240   1.50410  -3.47120    34    33    35    57
 C    -2.44830   0.57910  -3.26520    35    36    28    34
 C    -2.12920  -0.74350  -3.41330    36    35    46    59
 C    -0.32120   4.24330  -1.30830    37    44    39    32
 C     0.33680   4.10360   1.36980    38    24    43    25
 C    -1.35130   4.34180  -0.43930    39    37    40    24
 C    -2.54810   3.84000  -0.90250    40    20    39    31
 C     2.90580   3.00280   1.75950    41    42    93    26
 C     2.67820   3.70740   0.60580    42    41    45    43
 C     1.39020   4.24170   0.40410    43    44    42    38
 C     0.97090   4.27170  -0.93250    44    37    89    43
 C     3.43520   3.23730  -0.47200    45    88    95    42
 C    -2.83520  -1.75330  -2.78500    46    49    36    47
 C    -3.86530  -1.54140  -1.86610    47    46    27    48
 C    -3.93550  -2.47940  -0.77600    48    51    64    47
 C    -1.98740  -2.81510  -2.73130    49    50    46    60
 C    -2.09400  -3.71970  -1.76020    50    49    53    51
 C    -3.02520  -3.53720  -0.78520    51    50    66    48
 C     1.29410  -4.22990  -0.95350    52    87    54    71
 C    -0.97410  -4.32190  -1.28770    53    50    54    69
 C     0.26840  -4.07270  -1.83820    54    52    53    63
 C     0.83610   3.07010  -2.80910    55    32    89    56
 C     1.11470   1.85510  -3.45370    56    55    82    57
 C    -0.00130   1.02530  -3.76470    57    56    58    34
 C     0.26760  -0.38370  -3.84190    58    59    57    61
 C    -0.84260  -1.19950  -3.68820    59    60    58    36
 C    -0.76230  -2.49680  -3.25620    60    59    49    63
 C     1.55790  -0.97830  -3.55240    61    83    58    62
 C     1.62350  -2.35110  -3.03210    62    63    86    61
 C     0.42310  -3.09910  -2.87060    63    60    62    54
 C    -4.29550  -1.99700   0.49920    64    65    68    48
 C    -4.72700  -0.72430   0.62120    65    64    29     3
 C    -2.41990  -4.04870   0.33340    66    67    69    51
 C    -2.64860  -3.45550   1.50740    67    66    68    73
 C    -3.56550  -2.47690   1.59250    68    67     1    64
 C    -1.17930  -4.52010   0.06700    69    66    70    53
 C    -0.14470  -4.43040   0.98140    70    71    69    72
 C     1.09370  -4.38830   0.41870    71    74    70    52
 C    -0.34000  -3.71560   2.20480    72    73    76    70
 C    -1.62270  -3.25180   2.40000    73    67    72     6
 C     2.15460  -3.85170   1.05440    74    71    78    75
 C     2.01640  -3.17180   2.26620    75    77    74    76
 C     0.72140  -2.99180   2.82240    76    75    72    17
 C     2.99090  -2.23480   2.46640    77    18    75    81
 C     3.08470  -3.47800   0.09620    78    80    87    74
 C     4.40930  -1.75580  -0.71310    79    80    99    85
 C     4.03730  -2.54880   0.34260    80    78    81    79
 C     4.02660  -1.95350   1.57810    81    96    80    77
 C     2.41330   1.31770  -3.22150    82    83    91    56
 C     2.63360  -0.08620  -3.25840    83    84    82    61
 C     3.70030  -0.56560  -2.46850    84    85    92    83
 C     3.70900  -1.81960  -1.92670    85    84    86    79
 C     2.70920  -2.71960  -2.18100    86    85    87    62
 C     2.48430  -3.62220  -1.14460    87    52    78    86
 C     2.87560   3.18170  -1.71520    88    89    91    45
 C     1.68790   3.67340  -1.92710    89    88    44    55
 C     4.23880   1.52240  -1.58590    90    92    91    95
 C     3.27800   2.06270  -2.37360    91    90    88    82
 C     4.47020   0.21790  -1.63760    92    90    99    84
 C     3.83270   1.98170   1.84770    93    98    41    94
 C     4.61330   1.52680   0.78440    94    95    93   100
 C     4.33750   2.20230  -0.38610    95    45    94    90
 C     4.44130  -0.66240   1.75230    96    81    97   100
 C     3.64200  -0.16590   2.74640    97    98    96    18
 C     3.34140   1.12160   2.78480    98    97    93    15
 C     4.85660  -0.47210  -0.52680    99    92    79   100
 C     4.91050   0.14870   0.72250   100    96    99    94
