   100
C100-C1-129                                                                     
 C    -4.51800  -2.01220  -0.19940     1     8     3     2
 C    -4.22280  -1.92790  -1.53160     2     4     1    19
 C    -4.93660  -0.92510   0.49250     3     1    62    25
 C    -4.38590  -0.75700  -2.15550     4     2     5    63
 C    -3.44310  -0.39770  -3.06900     5     4    69    17
 C    -2.01880  -3.32150   1.88060     6     7    26    12
 C    -3.21510  -2.72560   1.66250     7     6     8    24
 C    -3.67240  -2.89220   0.35680     8     1     7     9
 C    -2.86740  -3.40720  -0.66280     9    11    19     8
 C    -0.61950  -3.85440  -1.42280    10    14    11    22
 C    -1.64410  -3.94460  -0.43810    11     9    12    10
 C    -1.28700  -3.98110   0.90260    12    38    11     6
 C     1.74180  -3.55700  -1.71730    13    91    23    14
 C     0.70700  -4.07070  -0.96050    14    13    10    37
 C    -1.22570   0.91520  -3.80910    15    68    95    16
 C    -1.15200  -0.48500  -3.86150    16    15    20    17
 C    -2.31230  -1.18230  -3.42210    17     5    16    18
 C    -2.15870  -2.43960  -2.76530    18    19    22    17
 C    -3.15970  -2.73740  -1.82280    19     2     9    18
 C     0.15090  -1.03480  -3.80260    20    16    21    97
 C     0.25930  -2.35050  -3.21170    21    23    22    20
 C    -0.86690  -3.01110  -2.60140    22    18    21    10
 C     1.52580  -2.70380  -2.77510    23    13   100    21
 C    -3.54580  -1.55750   2.39610    24    25     7    28
 C    -4.43530  -0.68430   1.74940    25    41     3    24
 C    -1.12190  -2.86330   2.81340    26    31     6    27
 C    -1.31250  -1.69440   3.53000    27    26    35    28
 C    -2.57040  -1.00670   3.30450    28    29    24    27
 C    -2.57570   0.40950   3.47460    29    30    28    40
 C    -1.36820   0.98680   3.84230    30    42    36    29
 C     0.11140  -3.35180   2.49510    31    26    33    38
 C     2.35960  -3.07740   2.08970    32    53    33    39
 C     1.28890  -2.76120   2.89160    33    32    31    34
 C     1.23560  -1.53250   3.59110    34    33    35    55
 C    -0.08420  -1.03850   3.90230    35    36    27    34
 C    -0.18650   0.31940   4.05010    36    35    30    57
 C     1.01360  -4.20290   0.42790    37    38    39    14
 C    -0.00950  -4.05530   1.30180    38    12    37    31
 C     2.23670  -3.79280   0.90420    39    92    37    32
 C    -3.45700   1.24370   2.72380    40    41    44    29
 C    -4.36390   0.68160   1.87700    41    40    25    61
 C    -1.00930   2.24870   3.47230    42    43    45    30
 C    -1.79360   2.95880   2.67310    43    42    44    46
 C    -2.99690   2.48790   2.30300    44    43    59    40
 C     0.33480   2.38220   3.41990    45    42    57    48
 C    -1.23880   3.74680   1.71420    46    43    70    47
 C     0.12360   3.91050   1.59070    47    46    72    48
 C     0.97900   3.24530   2.54390    48    45    51    47
 C     4.02000   1.23710   2.08040    49    84    58    50
 C     2.93090   1.73900   2.79150    50    49    56    51
 C     2.30710   2.94100   2.26960    51    48    52    50
 C     2.78260   3.41610   1.05220    52    85    51    71
 C     3.44620  -2.25950   1.97120    53    32    54    87
 C     3.48980  -1.04260   2.62770    54    53    58    55
 C     2.37570  -0.63010   3.42290    55    54    56    34
 C     2.14730   0.78660   3.51450    56    57    50    55
 C     0.87550   1.18300   3.83500    57    56    45    36
 C     4.29160  -0.11150   1.98950    58    49    54    89
 C    -3.26340   3.03570   1.05930    59    60    44    70
 C    -4.11630   2.43090   0.17920    60    59    61    65
 C    -4.74110   1.26740   0.66070    61    62    41    60
 C    -5.11930   0.25880  -0.16840    62    63    61     3
 C    -4.84750   0.35290  -1.49040    63    62    66     4
 C    -2.58190   3.21920  -1.57100    64    67    74    65
 C    -3.79110   2.53330  -1.19450    65    66    60    64
 C    -4.19550   1.44080  -1.98490    66    63    69    65
 C    -1.90970   2.71420  -2.68020    67    68    76    64
 C    -2.30960   1.58830  -3.33280    68    69    67    15
 C    -3.41140   0.96800  -3.00090    69    68    66     5
 C    -2.14190   3.76000   0.67790    70    46    74    59
 C     1.91770   3.91740   0.07460    71    72    78    52
 C     0.57810   4.14970   0.27190    72    71    47    73
 C    -0.31230   4.05360  -0.85920    73    74    72    75
 C    -1.72420   3.86820  -0.63930    74    70    64    73
 C     0.27420   3.54130  -2.07630    75    76    79    73
 C    -0.57040   2.83550  -2.89450    76    67    75    95
 C     3.64830   2.95670  -0.90670    77    80    85    78
 C     2.45200   3.55140  -1.14710    78    77    71    79
 C     1.63850   3.23170  -2.22350    79    78    75    82
 C     4.11050   1.98450  -1.71520    80    77    86    81
 C     3.31090   1.55910  -2.73800    81    80    98    82
 C     2.08580   2.12670  -3.04900    82    81    96    79
 C     5.02880   0.86080   0.12720    83    89    84    86
 C     4.51040   1.82270   0.94490    84    85    83    49
 C     3.85610   2.87770   0.43160    85    84    52    77
 C     4.82650   0.94080  -1.22220    86    80    93    83
 C     4.02910  -2.48650   0.72580    87    92    88    53
 C     4.72580  -1.51540   0.03940    88    87    89    94
 C     4.92210  -0.34510   0.75500    89    83    88    58
 C     3.57630  -2.29200  -1.91770    90    91    94   100
 C     2.99020  -3.28690  -1.21360    91    92    90    13
 C     3.23700  -3.39730   0.09940    92    91    39    87
 C     4.51630  -0.16800  -1.94370    93    86    94    98
 C     4.50210  -1.41670  -1.36700    94    93    90    88
 C    -0.14600   1.72720  -3.63250    95    96    15    76
 C     1.13530   1.27720  -3.66780    96    95    82    97
 C     1.32600  -0.15110  -3.80810    97    99    96    20
 C     3.56210   0.21260  -2.90010    98    81    99    93
 C     2.58040  -0.63960  -3.38290    99   100    98    97
 C     2.65320  -1.91680  -2.88960   100    99    23    90
