   100
C100-Cs-208                                                                     
 C    -4.52230  -0.73270   0.20300     1     3    19     2
 C    -4.52200   0.72000   0.20600     2     4     6     1
 C    -4.26960  -1.36100  -1.01570     3    58    26     1
 C    -4.27430   1.35540  -1.00920     4    57    11     2
 C    -3.44270   2.74730   1.20740     5     8    13     6
 C    -4.09560   1.46320   1.33620     6     7     2     5
 C    -3.72750   0.66800   2.41260     7    18    10     6
 C    -2.47010   3.06270   2.16850     8     9    16     5
 C    -2.11080   2.19290   3.15090     9    10     8    37
 C    -2.73070   1.04610   3.28160    10     9    24     7
 C    -3.65380   2.57340  -1.13400    11     4    68    13
 C    -2.06540   4.17690  -0.28940    12    15    17    13
 C    -3.20580   3.33830  -0.06110    13    11     5    12
 C     0.19340   4.62260   0.46490    14   100    15    95
 C    -1.14750   4.43500   0.75310    15    16    14    12
 C    -1.36530   3.83550   1.95720    16    15     8    87
 C    -1.47270   4.09620  -1.57080    17    67    96    12
 C    -3.73290  -0.70200   2.41030    18     7    21    19
 C    -4.10130  -1.48980   1.32730    19    18     1    20
 C    -3.44360  -2.76930   1.19650    20    23    25    19
 C    -2.73250  -1.07410   3.27830    21    22    24    18
 C    -2.11030  -2.22020   3.14340    22    21    23    41
 C    -2.46910  -3.08580   2.15590    23    22    27    20
 C    -2.05120  -0.01420   3.76670    24    10    21    39
 C    -3.20270  -3.35140  -0.07560    25    26    20    29
 C    -3.64650  -2.57790  -1.14460    26     3    50    25
 C    -1.36570  -3.85670   1.93120    27    28    23    31
 C    -1.14510  -4.44690   0.72120    28    27    30    29
 C    -2.06380  -4.18460  -0.32050    29    48    28    25
 C     0.19880  -4.62120   0.43980    30    46    28    34
 C    -0.32210  -3.37310   2.74300    31    41    33    27
 C     1.91780  -2.45990   2.85100    32    36    33    44
 C     1.00710  -3.48050   2.43010    33    31    34    32
 C     1.23460  -4.18900   1.25990    34    55    33    30
 C     3.78020  -1.12090   2.12520    35    84    36    45
 C     3.11590  -2.33640   2.07880    36    35    32    54
 C    -0.78280   2.30430   3.47320    37    87     9    38
 C     0.01220   1.22200   3.89290    38    37    39    42
 C    -0.66640  -0.01550   4.05900    39    24    40    38
 C     0.01520  -1.24820   3.89020    40    41    39    44
 C    -0.78330  -2.32580   3.46920    41    31    22    40
 C     1.40200   1.26480   3.58510    42    38    43    89
 C     2.08260  -0.01140   3.48340    43    45    44    42
 C     1.40300  -1.28480   3.57830    44    40    43    32
 C     3.27620  -0.00250   2.77890    45    43    92    35
 C     0.67840  -4.54420  -0.83180    46    47    51    30
 C    -0.14440  -4.23060  -1.82020    47    46    48    70
 C    -1.47210  -4.09400  -1.59700    48    49    47    29
 C    -1.88580  -3.23040  -2.54760    49    50    48    60
 C    -2.97170  -2.52500  -2.34980    50    49    59    26
 C     1.94400  -4.10270  -0.83410    51    46    55    52
 C     2.43060  -3.28470  -1.85450    52    53    51    69
 C     3.48270  -2.53630  -1.49920    53    52    72    56
 C     3.30300  -3.08620   0.86720    54    55    56    36
 C     2.33060  -3.94510   0.48920    55    54    34    51
 C     3.98700  -2.49680  -0.18980    56    85    54    53
 C    -3.97530   0.64960  -2.14620    57    58    65     4
 C    -3.96840  -0.65590  -2.15350    58    57    59     3
 C    -3.07720  -1.32070  -2.93490    59    50    58    62
 C    -0.82090  -2.69640  -3.25430    60    70    49    61
 C    -0.79490  -1.39450  -3.77230    61    60    62    75
 C    -2.02500  -0.68900  -3.65090    62    64    59    61
 C    -0.79870   1.41240  -3.75370    63    66    64    76
 C    -2.02920   0.70490  -3.63910    64    62    65    63
 C    -3.08020   1.33060  -2.91550    65    68    57    64
 C    -0.82090   2.70980  -3.22540    66    82    67    63
 C    -1.89620   3.24140  -2.52710    67    68    17    66
 C    -2.97920   2.53790  -2.33700    68    67    65    11
 C     1.54200  -2.78750  -2.85090    69    70    52    74
 C     0.28170  -3.34570  -2.80410    70    60    69    47
 C     1.67080   1.46630  -3.38790    71    80    81    76
 C     3.73080  -1.32950  -2.09640    72    77    53    73
 C     2.83140  -0.70350  -3.00330    73    72    74    80
 C     1.67410  -1.44500  -3.39680    74    73    69    75
 C     0.48370  -0.71790  -3.83830    75    61    76    74
 C     0.48180   0.73680  -3.83140    76    63    75    71
 C     4.53060  -0.65080  -1.22990    77    78    72    85
 C     4.51740   0.66830  -1.22880    78    77    79    86
 C     3.72740   1.36080  -2.09280    79    78    97    80
 C     2.83330   0.73040  -2.99870    80    79    71    73
 C     1.54240   2.80870  -2.83290    81    82    98    71
 C     0.27670   3.36110  -2.77590    82    66    81    96
 C     4.57370   0.67170   1.12260    83    84    86    92
 C     4.58720  -0.67370   1.11030    84    83    85    35
 C     4.63490  -1.34320  -0.05790    85    56    84    77
 C     4.60870   1.35160  -0.04890    86    93    83    78
 C    -0.31870   3.36250   2.76520    87    37    88    16
 C     1.00880   3.46850   2.45310    88    87    95    89
 C     1.92250   2.44640   2.86790    89    91    88    42
 C     3.29560   3.08680   0.89430    90    94    93    91
 C     3.12200   2.32970   2.10200    91    92    89    90
 C     3.78460   1.12070   2.14470    92    83    91    45
 C     3.97060   2.51100  -0.17980    93    86    90    97
 C     2.32420   3.94620   0.50160    94    90    95    99
 C     1.23120   4.18220   1.28280    95    94    88    14
 C    -0.14270   4.24850  -1.79250    96   100    17    82
 C     3.48580   2.56880  -1.49260    97    98    79    93
 C     2.43300   3.31700  -1.84270    98    97    99    81
 C     1.94210   4.12920  -0.82240    99   100    94    98
 C     0.68070   4.56300  -0.80450   100    96    99    14
