   100
C100-D2d-395                                                                    
 C    -2.13290   3.40230   1.42320     1     2    55     4
 C    -3.15970   2.58480   1.88670     2     3    53     1
 C    -4.15510   2.07260   1.09730     3     6    27     2
 C    -2.14270   3.68000   0.00010     4     5     8     1
 C    -3.16330   3.10190  -0.74670     5    11     6     4
 C    -4.15830   2.32420  -0.21300     6     3    21     5
 C     0.17100   4.10840   0.10750     7    13     8    56
 C    -0.93200   3.94730  -0.69070     8     7     4     9
 C    -0.68870   3.50710  -2.05100     9    10     8    16
 C    -1.75990   2.83010  -2.67120    10    12    11     9
 C    -2.98050   2.67930  -2.03680    11     5    10    22
 C    -1.46860   1.81350  -3.56070    12    18    23    10
 C     1.45310   3.97390  -0.33820    13     7    75    15
 C     2.96240   2.90490  -1.72990    14    96    15    76
 C     1.73900   3.54510  -1.62310    15    13    14    16
 C     0.66890   3.22580  -2.48260    16    15    17     9
 C     0.91600   2.14330  -3.41430    17    18    97    16
 C    -0.18640   1.45920  -3.86020    18    12    17    89
 C    -4.56220  -0.89960  -1.56490    19    28    25    20
 C    -4.97290   0.11090  -0.68900    20    21    19    26
 C    -4.56880   1.38100  -1.11130    21     6    22    20
 C    -3.84790   1.61190  -2.26010    22    24    21    11
 C    -2.28960   0.71890  -3.72400    23    24    12    35
 C    -3.48720   0.58630  -3.09130    24    23    25    22
 C    -3.83830  -0.68000  -2.71460    25    24    19    37
 C    -4.96450  -0.15880   0.69960    26    27    30    20
 C    -4.55780   0.85350   1.56930    27     3    43    26
 C    -4.14580  -2.11540  -1.09650    28    29    19    31
 C    -4.13360  -2.37430   0.21210    29    28    32    30
 C    -4.54700  -1.42770   1.10860    30    29    41    26
 C    -3.15380  -2.62870  -1.89400    31    37    28    34
 C    -3.13890  -3.14540   0.74740    32    29    45    33
 C    -2.11920  -3.71750  -0.00770    33    32    47    34
 C    -2.12260  -3.43930  -1.42910    34    31    39    33
 C    -1.45850  -0.34910  -3.99850    35    89    23    36
 C    -1.75050  -1.63380  -3.57110    36    37    35    38
 C    -2.97050  -1.74560  -2.92830    37    31    36    25
 C    -0.67410  -2.48850  -3.25360    38    36    39    91
 C    -0.91000  -3.41700  -2.16340    39    40    34    38
 C     0.19700  -3.86060  -1.48860    40    94    39    46
 C    -3.81800  -1.65480   2.25350    41    42    30    45
 C    -3.45270  -0.63100   3.08620    42    44    41    43
 C    -3.82000   0.63460   2.71030    43    42    27    53
 C    -2.25380  -0.75730   3.71430    44    42    50    51
 C    -2.94940  -2.72520   2.03650    45    32    49    41
 C     0.19420  -4.12650  -0.12100    46    67    47    40
 C    -0.90550  -3.97370   0.68410    47    46    33    48
 C    -0.65640  -3.53310   2.04390    48    49    47    69
 C    -1.72910  -2.86370   2.67110    49    50    45    48
 C    -1.42980  -1.84870   3.56020    50    71    44    49
 C    -1.43600   0.32060   3.98770    51    57    44    52
 C    -1.73890   1.60290   3.56120    52    53    51    54
 C    -2.96010   1.70670   2.92190    53     2    52    43
 C    -0.66720   2.46090   3.24320    54    52    55    59
 C    -0.91690   3.38710   2.15320    55    56     1    54
 C     0.18320   3.83820   1.47300    56    62    55     7
 C    -0.15470  -0.12140   4.12750    57    51    58    71
 C     0.94460   0.68310   3.96700    58    57    65    59
 C     0.69670   2.04180   3.52170    59    61    58    54
 C     2.98000   2.02470   2.69580    60    66    61    73
 C     1.76220   2.66640   2.84210    61    62    60    59
 C     1.46630   3.55170   1.82500    62    56    75    61
 C     3.18650  -1.88620   2.59500    63    81    72    64
 C     2.16040  -1.42330   3.41820    64    63    70    65
 C     2.16140  -0.00130   3.70240    65    66    58    64
 C     3.18690   0.74010   3.12440    66    82    60    65
 C     1.47750  -3.98230   0.31790    67    46    85    68
 C     1.77030  -3.55510   1.60260    68    72    67    69
 C     0.70380  -3.24370   2.46820    69    68    70    48
 C     0.94760  -2.16040   3.40080    70    71    64    69
 C    -0.15250  -1.48750   3.85790    71    50    70    57
 C     2.99100  -2.91080   1.70270    72    63    68    88
 C     3.84200   2.24170   1.61890    73    74    77    60
 C     3.47640   3.07750   0.59580    74    75    76    73
 C     2.28210   3.71170   0.73010    75    74    62    13
 C     3.83590   2.69530  -0.66580    76    74    79    14
 C     4.57780   1.09940   1.39610    77    82    73    78
 C     4.97840   0.69110   0.11830    78    79    77    84
 C     4.56500   1.55430  -0.90050    79    95    76    78
 C     4.58200  -1.55640   0.86520    80    81    88    84
 C     4.18570  -1.09720   2.08940    81    82    80    63
 C     4.18470   0.20760   2.35230    82    81    77    66
 C     4.57080  -1.11010  -1.43500    83    98    86    84
 C     4.97960  -0.69530  -0.16530    84    83    80    78
 C     2.29160  -3.71450  -0.76140    85    87    94    67
 C     3.84610  -2.25710  -1.66260    86    87    83    92
 C     3.49090  -3.08390  -0.63090    87    85    88    86
 C     3.85520  -2.70530   0.63030    88    87    80    72
 C    -0.18060   0.09780  -4.14070    89    35    90    18
 C     0.92430  -0.69940  -3.99050    90    89   100    91
 C     0.68730  -2.05980  -3.54390    91    93    90    38
 C     2.97970  -2.03520  -2.73540    92    99    93    86
 C     1.76260  -2.68070  -2.87370    93    94    92    91
 C     1.47360  -3.56730  -1.85740    94    40    85    93
 C     4.15550   1.09250  -2.11850    95    98    79    96
 C     3.15360   1.88260  -2.62680    96    14    95    97
 C     2.13000   1.41110  -3.44480    97    96    17   100
 C     4.15580  -0.21570  -2.38570    98    95    99    83
 C     3.16770  -0.74920  -3.16700    99    98    92   100
 C     2.13860  -0.00880  -3.73380   100    99    90    97
