   100
C100-C1-278                                                                     
 C     3.74630   1.75720  -2.05190     1    21     3     2
 C     2.60160   2.52440  -2.46280     2     4     8     1
 C     4.30790   2.04720  -0.78870     3    62    19     1
 C     2.20510   3.55470  -1.63320     4     5     2    63
 C     0.92550   4.01230  -1.58020     5     4    69     6
 C    -0.14390   3.52270  -2.33820     6     5    16     7
 C     0.15780   2.40810  -3.19120     7     6     8    11
 C     1.53390   1.94990  -3.23310     8     9     2     7
 C     1.73660   0.62430  -3.57270     9    20    13     8
 C    -2.25050   1.79270  -3.05910    10    14    11    15
 C    -0.93010   1.49480  -3.50830    11    10    12     7
 C    -0.62570   0.09950  -3.78070    12    13    32    11
 C     0.70060  -0.25620  -3.80000    13    12     9    30
 C    -3.15300   0.71810  -2.95730    14    96    31    10
 C    -2.51740   2.90910  -2.20290    15    16    17    10
 C    -1.44400   3.71840  -1.81170    16    15     6    18
 C    -3.60060   2.78420  -1.30150    17    95   100    15
 C    -1.52020   4.22920  -0.49000    18    68    98    16
 C     4.81600   1.07980   0.03550    19    23     3    47
 C     2.84730  -0.10430  -3.21090    20    21     9    24
 C     3.86810   0.41740  -2.44910    21    20    22     1
 C     4.49000  -0.52130  -1.62750    22    26    23    21
 C     4.92100  -0.17900  -0.36350    23    19    38    22
 C     2.47610  -1.44080  -3.18020    24    30    25    20
 C     3.09850  -2.36580  -2.36910    25    24    26    28
 C     4.11660  -1.84190  -1.58160    26    22    39    25
 C     0.93820  -3.54400  -2.31460    27    29    34    28
 C     2.30380  -3.42130  -1.90060    28    25    41    27
 C     0.05600  -4.16990  -1.45100    29    36    42    27
 C     1.15410  -1.53720  -3.54070    30    24    13    34
 C    -2.79430  -0.60730  -3.14060    31    32    14    89
 C    -1.53380  -0.98250  -3.52340    32    31    12    33
 C    -1.08730  -2.30570  -3.14530    33    34    32    35
 C     0.31940  -2.57460  -3.15670    34    30    27    33
 C    -1.94540  -3.07370  -2.26050    35    36    90    33
 C    -1.29390  -3.95800  -1.41610    36    29    35    85
 C     3.52280  -3.21070   0.19120    37    39    41    43
 C     4.70240  -1.22580   0.49010    38    39    23    45
 C     4.30560  -2.25850  -0.28650    39    37    38    26
 C     1.66230  -4.29850   0.24700    40    42    41    49
 C     2.60450  -3.84040  -0.58940    41    40    37    28
 C     0.43280  -4.52530  -0.17850    42    40    58    29
 C     3.04110  -3.11070   1.48690    43    49    37    44
 C     3.29620  -2.00950   2.29870    44    43    45    52
 C     4.21470  -1.02630   1.80430    45    46    38    44
 C     4.08620   0.31650   2.19500    46    48    47    45
 C     4.43350   1.35220   1.33030    47    61    19    46
 C     3.02890   0.62620   3.03240    48    53    46    59
 C     1.87190  -3.81230   1.52800    49    43    40    50
 C     0.81450  -3.52730   2.38110    50    49    56    51
 C     0.96220  -2.36740   3.21530    51    52    50    55
 C     2.20130  -1.64770   3.15520    52    53    51    44
 C     2.12210  -0.30440   3.48290    53    48    52    71
 C    -1.45750  -2.19640   3.20650    54    77    55    57
 C    -0.24840  -1.66090   3.59340    55    54    70    51
 C    -0.45410  -3.94910   1.93840    56    57    58    50
 C    -1.55730  -3.31210   2.39790    57    56    87    54
 C    -0.62170  -4.44160   0.64110    58    42    85    56
 C     2.39230   1.85980   3.03450    59    60    72    48
 C     2.75590   2.88050   2.18570    60    59    61    65
 C     3.79420   2.56480   1.31890    61    47    62    60
 C     3.77700   2.99800   0.01700    62    63     3    61
 C     2.78370   3.76200  -0.39270    63    62    66     4
 C     0.40830   3.60780   2.31640    64    67    74    65
 C     1.73360   3.75040   1.79330    65    60    66    64
 C     1.83410   4.20980   0.46270    66    69    63    65
 C    -0.62900   4.07650   1.54530    67    84    64    68
 C    -0.43140   4.49810   0.24360    68    69    18    67
 C     0.75600   4.48040  -0.28940    69    68    66     5
 C    -0.29640  -0.24920   3.83170    70    71    55    75
 C     0.93750   0.35850   3.77670    71    72    70    53
 C     1.10140   1.69200   3.48820    72    71    59    74
 C    -1.29880   1.97650   3.25160    73    83    74    75
 C     0.04130   2.52720   3.18040    74    72    64    73
 C    -1.47710   0.57690   3.60500    75    78    73    70
 C    -3.40160  -2.15720   2.17700    76    79    87    77
 C    -2.60740  -1.45790   3.05730    77    54    76    78
 C    -2.69040  -0.06880   3.21360    78    77    81    75
 C    -4.31600  -1.55580   1.44050    79    76    80    92
 C    -4.52360  -0.21700   1.61610    80    79    97    81
 C    -3.71740   0.58790   2.46970    81    82    80    78
 C    -3.52390   1.92840   2.07880    82    81    83    99
 C    -2.33550   2.60650   2.47580    83    84    82    73
 C    -1.90780   3.63900   1.62760    84    67    98    83
 C    -1.74120  -4.20330  -0.12380    85    86    58    36
 C    -2.86860  -3.63780   0.36970    86    85    87    93
 C    -2.73830  -3.23310   1.70120    87    76    57    86
 C    -4.51290  -0.55810  -1.74150    88    96    91    89
 C    -3.62660  -1.39720  -2.35490    89    88    90    31
 C    -3.20520  -2.60230  -1.80970    90    89    35    93
 C    -4.94410  -0.82630  -0.48350    91    92    88    97
 C    -4.51630  -1.94390   0.12650    92    91    79    93
 C    -3.70130  -2.90300  -0.48230    93    92    86    90
 C    -4.79050   1.46270   0.02480    94    97    99    95
 C    -4.43670   1.73150  -1.27630    95    96    17    94
 C    -4.24300   0.71510  -2.12270    96    95    88    14
 C    -5.01960   0.21230   0.41450    97    94    80    91
 C    -2.47860   3.86710   0.39360    98   100    18    84
 C    -4.11710   2.31500   0.84230    99   100    94    82
 C    -3.51960   3.20170   0.00710   100    98    99    17
