   100
C100-C1-113                                                                     
 C    -3.34000  -1.91550  -2.31540     1     2     6    62
 C    -3.88290  -0.66870  -2.37040     2     1     3    10
 C    -4.74030  -0.34430  -1.29670     3     4    50     2
 C    -4.89270   0.92470  -0.87180     4     5     3    17
 C    -4.25960   1.90500  -1.52970     5     4    18    11
 C    -2.11080  -2.21000  -2.87140     6    66     1     8
 C     0.13630  -1.58980  -3.51820     7    13     8    68
 C    -1.26570  -1.27290  -3.48200     8     6     9     7
 C    -1.77220   0.07120  -3.54270     9     8    14    10
 C    -3.10550   0.34160  -3.00990    10    11     2     9
 C    -3.38740   1.63110  -2.56090    11    24     5    10
 C     2.38870  -0.73380  -3.35640    12    69    96    13
 C     1.05400  -0.49760  -3.68480    13    12    22     7
 C    -0.79580   1.14560  -3.61130    14    23    22     9
 C    -4.36590   1.93520   1.17580    15    17    16    31
 C    -3.82240   2.98800   0.51190    16    18    15    45
 C    -4.96090   0.93140   0.49660    17    30    15     4
 C    -3.77910   2.97590  -0.84530    18    19    16     5
 C    -2.69120   3.44470  -1.47270    19    18    20    24
 C    -1.67340   4.07330  -0.79070    20    21    19    44
 C    -0.48810   4.03460  -1.44510    21    46    20    27
 C     0.62470   0.87190  -3.68350    22    13    14    25
 C    -1.20320   2.41200  -3.09210    23    24    27    14
 C    -2.44810   2.61180  -2.57080    24    11    23    19
 C     1.59840   1.87140  -3.23270    25    26    97    22
 C     1.07390   3.00790  -2.64210    26    27    92    25
 C    -0.24990   3.24680  -2.57030    27    26    23    21
 C    -3.59980  -1.89280   2.12020    28    29    36    51
 C    -4.14580  -0.63760   2.10070    29    28    30    32
 C    -4.87350  -0.33740   0.93730    30    17    50    29
 C    -3.59540   1.67660   2.28180    31    15    38    32
 C    -3.42910   0.38470   2.79080    32    31    29    34
 C    -1.23930   1.18210   3.58520    33    37    34    40
 C    -2.19070   0.11120   3.45950    34    32    33    35
 C    -1.67670  -1.24380   3.47490    35    36    58    34
 C    -2.43290  -2.18610   2.79430    36    56    28    35
 C     0.07040   0.81610   3.81750    37    43    33    57
 C    -2.61490   2.64870   2.33000    38    40    31    45
 C    -0.29840   3.27360   2.53820    39    42    40    48
 C    -1.41510   2.47340   2.97190    40    38    33    39
 C     2.11280   3.20240   2.19610    41    49    42    88
 C     0.99190   2.83780   2.90990    42    41    43    39
 C     1.14160   1.62050   3.54680    43    37    42    90
 C    -1.65870   4.07860   0.63830    44    45    48    20
 C    -2.75060   3.46170   1.21750    45    16    44    38
 C     0.68790   4.21790  -0.81800    46    21    92    47
 C     0.77250   4.28010   0.56950    47    49    46    48
 C    -0.41540   4.07180   1.32150    48    44    47    39
 C     1.99990   3.89600   1.02270    49    47    41    94
 C    -4.85170  -1.17180  -0.17870    50    52    30     3
 C    -3.70870  -2.77430   1.05620    51    53    52    28
 C    -4.26780  -2.38910  -0.14540    52    50    62    51
 C    -2.63690  -3.61400   1.12180    53    51    54    56
 C    -2.05970  -4.13310  -0.01040    54    55    53    63
 C    -0.75200  -4.43230   0.04750    55    54    64    61
 C    -1.85430  -3.28930   2.21670    56    36    60    53
 C     0.54050  -0.48460   3.83750    57    58    73    37
 C    -0.28350  -1.55560   3.61060    58    57    35    59
 C     0.35590  -2.70940   3.02190    59    60    58    75
 C    -0.50600  -3.56360   2.28830    60    56    61    59
 C     0.00370  -4.22810   1.18820    61    77    60    55
 C    -3.56970  -2.78770  -1.26310    62    63    52     1
 C    -2.51390  -3.63080  -1.20630    63    62    54    66
 C     0.09350  -4.28240  -1.02660    64    70    55    65
 C    -0.30260  -3.62970  -2.19470    65    66    64    68
 C    -1.62980  -3.32500  -2.22610    66    65     6    63
 C     1.98650  -2.93740  -2.46500    67    69    68    72
 C     0.63020  -2.82540  -2.88420    68    65    67     7
 C     2.84480  -1.91560  -2.79730    69    81    67    12
 C     1.35180  -4.20160  -0.55170    70    64    72    77
 C     3.42230  -3.21880  -0.51080    71    80    72    78
 C     2.34840  -3.64330  -1.26900    72    70    71    67
 C     1.89460  -0.47420   3.58340    73    90    57    74
 C     2.58700  -1.52690   3.00600    74    73    75    84
 C     1.78000  -2.67580   2.69110    75    76    74    59
 C     2.22420  -3.45790   1.58160    76    77    78    75
 C     1.29840  -4.14170   0.84070    77    61    76    70
 C     3.34660  -3.08130   0.88460    78    85    76    71
 C     4.76220  -1.58530   0.09720    79    82    80    85
 C     4.27330  -2.28470  -0.96110    80    71    81    79
 C     3.99990  -1.63860  -2.11980    81    95    80    69
 C     5.09440  -0.29120  -0.03430    82    79    86    98
 C     4.19600   0.20520   2.16020    83    89    86    84
 C     3.78580  -1.17120   2.29310    84    85    74    83
 C     4.13480  -2.01950   1.24210    85    78    79    84
 C     4.85450   0.58970   0.96690    86    82    91    83
 C     3.86150   2.70590   0.94850    87    91    94    88
 C     3.27110   2.44490   2.14590    88    87    41    89
 C     3.39720   1.20250   2.75230    89    90    88    83
 C     2.28130   0.83550   3.44750    90    89    73    43
 C     4.63180   1.80160   0.34850    91    87    86    99
 C     1.69540   3.68910  -1.61310    92    93    26    46
 C     2.92220   3.34710  -1.15290    93    92    94   100
 C     3.06260   3.52580   0.21940    94    87    49    93
 C     4.29180  -0.33180  -2.24560    95    81    98    96
 C     3.29860   0.25560  -2.99110    96    95    97    12
 C     2.92950   1.57770  -2.83700    97    96    25   100
 C     4.89040   0.34790  -1.24210    98    99    95    82
 C     4.56700   1.63740  -1.02460    99    98    91   100
 C     3.62470   2.32480  -1.80580   100    93    99    97
