   100
C100-C1-119                                                                     
 C    -4.64260   0.25760  -1.39950     1    10    57     2
 C    -4.00330  -0.79580  -2.10770     2     3     1    11
 C    -3.89980  -2.03590  -1.44730     3     4     2    71
 C    -2.87310  -2.92290  -1.80280     4     3     5     7
 C    -2.42000  -3.80070  -0.78140     5     6    48     4
 C    -1.18290  -4.32720  -0.73570     6     9     5    17
 C    -1.89590  -2.54980  -2.78170     7     8    12     4
 C    -0.68470  -3.21290  -2.71020     8    24     9     7
 C    -0.34670  -4.11190  -1.72040     9     6    18     8
 C    -4.37640   1.56510  -1.61010    10    13     1    63
 C    -2.97360  -0.40840  -3.05340    11    14    12     2
 C    -1.86550  -1.24700  -3.37290    12    11     7    26
 C    -3.45950   1.90330  -2.52670    13    10    97    14
 C    -2.74880   0.95650  -3.20840    14    13    85    11
 C     0.63960  -4.30730   0.85890    15    17    29    16
 C     1.56300  -4.27380  -0.23540    16    22    18    15
 C    -0.70530  -4.40750   0.55500    17    27     6    15
 C     0.97330  -4.13530  -1.50750    18     9    19    16
 C     1.49760  -3.34320  -2.47500    19    20    18    24
 C     2.67530  -2.79860  -2.32080    20    19    21    91
 C     3.39210  -3.01450  -1.18450    21    20    44    22
 C     2.81880  -3.68600  -0.09720    22    23    16    21
 C     3.12840  -3.12120   1.11950    23    46    22    28
 C     0.49700  -2.69430  -3.15650    24     8    19    25
 C     0.64380  -1.40240  -3.66030    25    24    26    90
 C    -0.55930  -0.65350  -3.77500    26    25    86    12
 C    -1.71000  -3.95160   1.34370    27    17    48    31
 C     2.19250  -3.04210   2.13520    28    29    23    34
 C     0.93160  -3.60700   2.07210    29    28    15    30
 C    -0.10440  -2.99670   2.86280    30    31    29    32
 C    -1.47750  -3.22140   2.51040    31    27    50    30
 C     0.22190  -1.76420   3.55330    32    33    35    30
 C    -0.82390  -0.88360   3.78050    33    49    39    32
 C     2.48510  -1.88650   2.84720    34    41    28    35
 C     1.50960  -1.16540   3.52280    35    34    32    37
 C     2.91710   0.82380   3.09490    36    40    43    37
 C     1.71430   0.26610   3.62640    37    36    38    35
 C     0.54900   1.10950   3.71400    38    39    66    37
 C    -0.66780   0.48940   3.82540    39    38    33    64
 C     2.85710   2.15280   2.66490    40    80    65    36
 C     3.61690  -1.31660   2.31860    41    43    34    46
 C     4.66130   0.55980   1.39110    42    79    47    43
 C     3.89560   0.02220   2.43540    43    41    42    36
 C     4.23540  -1.94930  -1.07260    44    21    45    82
 C     4.63780  -1.48820   0.15310    45    47    44    46
 C     4.01470  -2.07470   1.23400    46    23    45    41
 C     4.94570  -0.16840   0.23690    47    45    84    42
 C    -2.79530  -3.69460   0.52350    48    52     5    27
 C    -2.12470  -1.13990   3.45130    49    33    50    53
 C    -2.49870  -2.30070   2.83020    50    49    51    31
 C    -3.61660  -2.15140   2.01980    51    52    55    50
 C    -3.72830  -2.83130   0.84400    52    48    71    51
 C    -2.78020   0.07270   3.27130    53    64    54    49
 C    -3.88990   0.21680   2.46950    54    53    55    59
 C    -4.28400  -0.96110   1.84810    55    56    51    54
 C    -4.77910  -0.96320   0.56800    56    57    71    55
 C    -4.96380   0.18370  -0.05340    57    56    60     1
 C    -3.11590   2.50590   2.03490    58    61    68    59
 C    -4.08250   1.45460   1.83050    59    54    60    58
 C    -4.71160   1.38920   0.56460    60    63    57    59
 C    -2.93580   3.39760   0.97930    61    62    70    58
 C    -3.58840   3.27550  -0.21820    62    63    96    61
 C    -4.43820   2.26260  -0.42270    63    62    60    10
 C    -1.86870   1.07690   3.47220    64    53    39    68
 C     1.68230   2.88770   2.65870    65    66    73    40
 C     0.49330   2.43210   3.17370    66    65    38    67
 C    -0.72840   3.01670   2.67530    67    68    66    69
 C    -1.96860   2.32250   2.86620    68    64    58    67
 C    -0.62080   3.90920   1.54310    69    70    74    67
 C    -1.72420   4.01320   0.72920    70    69    61    95
 C    -4.34370  -2.06250  -0.09630    71    56    52     3
 C     2.94540   3.58430   0.99950    72    75    80    73
 C     1.74480   3.77630   1.59890    73    72    74    65
 C     0.61560   4.20200   0.93750    74    73    69    77
 C     3.03090   3.64040  -0.34910    75    76    81    72
 C     1.91950   3.90910  -1.06850    76    75    77    92
 C     0.72090   4.29640  -0.50330    77    76    98    74
 C     4.60500   1.91700  -0.34500    78    81    84    79
 C     4.52410   1.85180   1.02000    79    80    42    78
 C     3.65940   2.64680   1.66880    80    79    72    40
 C     3.81740   2.77200  -1.02320    81    78    75    93
 C     3.97150  -1.06470  -2.12880    82    83    91    44
 C     4.19550   0.27200  -2.04600    83    82    84    94
 C     4.81110   0.68720  -0.85540    84    78    47    83
 C    -1.51060   1.51140  -3.50650    85    86   100    14
 C    -0.37420   0.77030  -3.77330    86    85    26    88
 C     0.88020   2.73000  -2.91940    87    92    99    88
 C     0.90450   1.41360  -3.54760    88    89    86    87
 C     2.09960   0.61020  -3.41860    89    90    88    94
 C     1.94090  -0.80190  -3.50330    90    91    89    25
 C     2.93200  -1.57300  -2.85860    91    20    82    90
 C     1.99780   3.12760  -2.22490    92    93    87    76
 C     3.15370   2.39470  -2.16410    93    92    81    94
 C     3.26280   1.12850  -2.71820    94    93    83    89
 C    -1.61610   4.16950  -0.65570    95    96    98    70
 C    -2.75000   3.68420  -1.19430    96    95    97    62
 C    -2.67290   2.98470  -2.34600    97    13    96   100
 C    -0.39340   4.14320  -1.30460    98    77    95    99
 C    -0.31520   3.36870  -2.53070    99   100    87    98
 C    -1.47960   2.77880  -2.94490   100    97    99    85
