   100
C100-C1-22                                                                      
 C     2.06240   2.44920  -2.87290     1    17     2    63
 C     2.92720   1.38140  -2.91120     2     1    61     8
 C     3.02930  -1.04450  -2.91700     3    10     4     8
 C     4.16140  -0.90290  -2.05850     4     5    62     3
 C     4.52200  -1.82710  -1.10340     5     6    23     4
 C     3.78890  -2.92670  -0.96610     6     5    11    24
 C     0.91890   0.05840  -3.74640     7    20    15     8
 C     2.34850   0.12940  -3.36870     8     3     2     7
 C     0.92810  -2.30190  -3.15640     9    12    10    15
 C     2.30430  -2.25320  -2.80300    10     3    11     9
 C     2.75310  -3.15310  -1.80100    11     6    14    10
 C     0.18480  -3.27360  -2.47630    12   100    13     9
 C     0.66780  -3.99080  -1.42150    13    14    37    12
 C     1.89980  -3.92270  -1.07750    14    13    11    25
 C     0.17770  -1.17770  -3.64410    15     9     7    16
 C    -1.29310  -1.18260  -3.51940    16    99    96    15
 C     0.76600   2.38360  -3.26180    17     1    75    20
 C    -1.90230   2.33680  -2.93290    18    74    79    19
 C    -1.31380   1.22710  -3.57580    19    18    96    20
 C     0.11090   1.23860  -3.71460    20    17     7    19
 C     4.64920  -1.64620   1.23220    21    28    22    23
 C     3.83060  -2.72690   1.35630    22    24    21    41
 C     5.03490  -1.19900  -0.00940    23    47     5    21
 C     3.45940  -3.41540   0.27690    24    22    25     6
 C     2.24830  -3.98470   0.24030    25    24    14    39
 C     3.52260   1.36260   2.64650    26    48    27    33
 C     4.46470   0.60050   1.98660    27    28    26    46
 C     4.29300  -0.75290   2.18580    28    21    27    29
 C     3.19370  -1.29790   2.86750    29    41    32    28
 C     0.53580  -2.33230   3.02630    30    40    44    31
 C     0.86840  -1.01050   3.57270    31    32    36    30
 C     2.20620  -0.53330   3.44080    32    29    33    31
 C     2.44930   0.82200   3.33790    33    57    32    26
 C    -3.15330  -1.87310   2.59550    34    45    90    35
 C    -1.86100  -1.73760   3.13440    35    34    44    55
 C    -0.17770  -0.03020   3.73390    36    55    31    56
 C    -0.30550  -4.19180  -0.50050    37    92    13    38
 C    -0.07620  -4.07090   0.88430    38    39    37    43
 C     1.26480  -3.89670   1.25450    39    38    25    40
 C     1.59020  -3.04920   2.35390    40    41    39    30
 C     2.89260  -2.52320   2.34610    41    29    22    40
 C    -2.45030  -3.48630   0.99450    42    45    94    43
 C    -1.16080  -3.56420   1.63400    43    38    42    44
 C    -0.83990  -2.65130   2.73080    44    35    30    43
 C    -3.44590  -2.71530   1.54880    45    34    42    88
 C     4.91850   1.06700   0.72010    46    50    47    27
 C     5.11140   0.12230  -0.27980    47    23    46    62
 C     3.10760   2.57320   2.20000    48    49    26    51
 C     3.56090   3.04980   1.03930    49    48    66    50
 C     4.41200   2.27200   0.28000    50    46    49    60
 C     1.81790   2.82290   2.58980    51    48    57    52
 C     0.90740   3.61610   1.88470    52    51    64    65
 C    -0.82370   2.31650   3.03800    53    54    56    64
 C    -2.10440   1.87250   3.03420    54    53    70    58
 C    -1.51070  -0.42470   3.59390    55    36    58    35
 C     0.13540   1.38430   3.53930    56    57    53    36
 C     1.42900   1.72780   3.33270    57    56    33    51
 C    -2.46180   0.58070   3.37850    58    91    54    55
 C     3.06200   3.43420  -0.99240    59    63    60    66
 C     4.03040   2.48420  -1.03340    60    59    50    61
 C     4.01850   1.45810  -1.99110    61    62    60     2
 C     4.60810   0.30970  -1.58070    62    61     4    47
 C     2.13670   3.45640  -1.92390    63    59    67     1
 C    -0.47250   3.39570   2.12790    64    52    68    53
 C     1.38950   4.12780   0.64650    65    69    66    52
 C     2.71010   3.78290   0.28480    66    49    59    65
 C     0.91460   3.94850  -1.65480    67    63    75    69
 C    -1.45620   3.78220   1.13290    68    72    71    64
 C     0.44550   4.31080  -0.37140    69    65    72    67
 C    -3.09520   2.37970   2.22060    70    84    54    71
 C    -2.78730   3.25240   1.18580    71    70    82    68
 C    -0.93570   4.17610  -0.13840    72    73    69    68
 C    -1.72310   3.78550  -1.23000    73    81    74    72
 C    -1.16150   3.32770  -2.38700    74    75    18    73
 C     0.11450   3.37410  -2.57210    75    74    67    17
 C    -5.21200   0.00400  -0.63180    76    80    77    85
 C    -4.73330   1.18860  -1.11600    77    76    78    83
 C    -3.88210   1.25840  -2.22450    78    79    77    95
 C    -3.06840   2.33260  -2.23690    79    78    18    81
 C    -4.78750  -1.11910  -1.25300    80    76    87    97
 C    -2.94080   3.21550  -1.15640    81    73    82    79
 C    -3.58490   3.01430   0.02190    82    81    83    71
 C    -4.56470   2.03210  -0.00540    83    86    82    77
 C    -4.11050   1.46350   2.17720    84    86    91    70
 C    -5.33170   0.05120   0.73350    85    86    76    89
 C    -4.90620   1.29520   1.09090    86    84    85    83
 C    -4.49410  -2.22450  -0.49840    87    93    88    80
 C    -4.51780  -2.16430   0.85930    88    89    87    45
 C    -4.93060  -1.03320   1.47530    89    88    90    85
 C    -4.08910  -0.86110   2.53340    90    91    89    34
 C    -3.70450   0.36860   2.88880    91    90    58    84
 C    -1.45210  -3.86160  -1.10730    92    94    37   100
 C    -3.51290  -2.89880  -1.12180    93    87    94    98
 C    -2.57080  -3.61940  -0.42110    94    92    93    42
 C    -3.39440   0.07910  -2.86930    95    97    78    96
 C    -2.07080   0.03790  -3.49070    96    19    16    95
 C    -3.91430  -1.08530  -2.32110    97    98    80    95
 C    -3.16740  -2.21570  -2.29730    98    97    99    93
 C    -1.92730  -2.29450  -2.88010    99   100    98    16
 C    -1.14320  -3.24880  -2.32630   100    12    99    92
