   100
C100-Cs-15                                                                      
 C     4.62310   1.41400   1.11080     1     2     5    60
 C     5.00060   0.67580  -0.00770     2    40     1    15
 C     2.60930   2.48830   2.69820     3     4    63     6
 C     2.94700   3.10490   1.58210     4     3    12     5
 C     3.94700   2.60480   0.79670     5     4    13     1
 C     1.29620   2.49460   3.11140     6    70     3    10
 C    -2.04690   3.12550   1.79630     7     8     9    23
 C    -3.29270   2.50350   1.85110     8    98    76     7
 C    -1.05000   2.70570   2.70190     9     7    10    75
 C     0.26760   3.15580   2.44960    10     6     9    11
 C     0.63990   3.80610   1.22260    11    12    24    10
 C     1.98170   3.73140   0.85000    12    17     4    11
 C     3.62490   3.00080  -0.47870    13    14     5    17
 C     4.00110   2.25790  -1.56010    14    13    16    15
 C     4.70900   1.09530  -1.30720    15    28    14     2
 C     3.09990   2.23310  -2.59800    16    26    14    20
 C     2.40920   3.67800  -0.44180    17    12    19    13
 C     0.12340   3.80390  -1.18990    18    19    22    24
 C     1.49220   3.65150  -1.46200    19    17    20    18
 C     1.89060   2.90340  -2.54860    20    35    19    16
 C    -2.09080   3.14030  -1.77080    21    22    25    90
 C    -0.79620   3.23480  -2.14050    22    21    34    18
 C    -1.66550   3.70310   0.52920    23    25    24     7
 C    -0.32620   3.94820   0.19640    24    23    11    18
 C    -2.55540   3.45780  -0.51030    25    99    21    23
 C     2.91800   1.12180  -3.37510    26    16    27    36
 C     3.62430  -0.02820  -3.14390    27    32    26    28
 C     4.53060  -0.02570  -2.09060    28    29    15    27
 C     4.71630  -1.13720  -1.29730    29    28    30    40
 C     3.99480  -2.29050  -1.54410    30    31    33    29
 C     3.61880  -3.01370  -0.44590    31    30    41    54
 C     2.90320  -1.17040  -3.36330    32    27    33    39
 C     3.08580  -2.28010  -2.57800    33    32    30    52
 C    -0.37680   2.33350  -3.17170    34    35    22    37
 C     0.97840   2.22710  -3.31770    35    36    34    20
 C     1.59810   1.11430  -3.80140    36    35    38    26
 C    -1.21840   1.22220  -3.58680    37    91    92    34
 C     0.85490  -0.02270  -4.04000    38    36    39    92
 C     1.58590  -1.16650  -3.78710    39    85    38    32
 C     5.00760  -0.70670  -0.00060    40     2    42    29
 C     3.94410  -2.61440   0.82940    41    43    31    42
 C     4.62320  -1.42220   1.12710    42    40    41    59
 C     2.93490  -3.09410   1.61320    43    44    41    45
 C     2.59400  -2.45930   2.71710    44    43    58    51
 C     1.96390  -3.71830   0.88140    45    54    43    49
 C    -1.67860  -3.68680   0.55910    46    47    48    71
 C    -2.56180  -3.45050  -0.49310    47    82    57    46
 C    -0.33930  -3.93890   0.21930    48    46    49    56
 C     0.61900  -3.78450   1.25380    49    45    48    50
 C     0.24950  -3.12540   2.47660    50    51    72    49
 C     1.28220  -2.46340   3.12720    51    64    44    50
 C     1.87850  -2.94800  -2.52790    52    85    53    33
 C     1.47710  -3.67620  -1.42960    53    54    52    56
 C     2.39440  -3.68380  -0.41000    54    45    53    31
 C    -0.81600  -3.26500  -2.12400    55    57    86    56
 C     0.10530  -3.81890  -1.17110    56    53    55    48
 C    -2.11090  -3.15520  -1.76350    57    55    88    47
 C     3.23090  -1.31050   3.07100    58    61    44    59
 C     4.24430  -0.70580   2.29240    59    58    42    60
 C     4.24440   0.72360   2.29060    60    63     1    59
 C     2.28610  -0.63690   3.77950    61    62    58    64
 C     2.29350   0.67760   3.77510    62    61    63    70
 C     3.24100   1.33840   3.06630    63    62     3    60
 C     1.08600  -1.30110   3.81760    64    51    61    68
 C    -2.48100  -0.69540   3.30620    65    66    67    74
 C    -3.51170  -1.31450   2.60140    66    78    73    65
 C    -1.27770  -1.42060   3.47330    67    68    65    72
 C    -0.15620  -0.69290   3.92100    68    64    67    69
 C    -0.15540   0.74320   3.91950    69    70    75    68
 C     1.09270   1.33970   3.81270    70     6    62    69
 C    -2.06180  -3.09750   1.81910    71    73    72    46
 C    -1.06590  -2.67200   2.71870    72    71    50    67
 C    -3.29940  -2.46710   1.86690    73    83    66    71
 C    -2.48020   0.75090   3.30580    74    76    75    65
 C    -1.27630   1.46750   3.46890    75    69    74     9
 C    -3.51620   1.35770   2.59710    76    79     8    74
 C    -4.99460  -1.33360   0.92100    77    83    78    80
 C    -4.56390  -0.64330   2.01790    78    79    77    66
 C    -4.57360   0.70440   2.00930    79    78    97    76
 C    -5.38060  -0.65690  -0.21790    80   100    77    84
 C    -4.06580  -2.17210  -1.48140    81    84    88    82
 C    -3.77880  -2.87890  -0.35110    82    83    47    81
 C    -4.20350  -2.43360   0.83650    83    82    77    73
 C    -4.83710  -1.07370  -1.41800    84    81    94    80
 C     0.96250  -2.27760  -3.30550    85    39    86    52
 C    -0.39340  -2.37100  -3.16190    86    85    55    96
 C    -2.57340  -1.22330  -3.15450    87    88    96    95
 C    -3.00400  -2.26690  -2.32530    88    81    57    87
 C    -4.05400   2.17140  -1.49330    89    93    90    99
 C    -2.98430   2.24770  -2.33210    90    89    21    91
 C    -2.56260   1.19590  -3.16040    91    90    37    95
 C    -0.55470  -0.02120  -3.92680    92    38    96    37
 C    -4.83850   1.08100  -1.42670    93    89    94   100
 C    -4.45250  -0.00040  -2.17710    94    84    93    95
 C    -3.31070  -0.00890  -3.02140    95    94    91    87
 C    -1.22940  -1.25600  -3.58300    96    87    92    86
 C    -5.02410   1.38620   0.91210    97    98    79   100
 C    -4.20740   2.46920   0.82480    98    99    97     8
 C    -3.77190   2.89400  -0.36890    99    98    25    89
 C    -5.39750   0.70160  -0.21940   100    80    97    93
