   100
C100-C1-213                                                                     
 C     2.97730   0.21380  -3.22690     1     2    63     4
 C     3.76520   1.01470  -2.40970     2     3    61     1
 C     4.58010   0.52730  -1.43510     3     6    18     2
 C     3.03570  -1.21660  -2.95530     4     9     5     1
 C     3.81960  -1.64150  -1.88040     5     6     4    30
 C     4.59350  -0.78790  -1.16130     6     3    19     5
 C    -0.35370  -1.90600  -3.91310     7    10    15     8
 C     0.92170  -1.44210  -3.94010     8     7    64     9
 C     1.95980  -2.05440  -3.25210     9     8     4    12
 C    -0.67680  -2.96550  -3.18800    10     7    11    98
 C     0.28230  -3.58450  -2.44400    11    31    10    12
 C     1.61510  -3.18770  -2.42020    12    11    29     9
 C    -3.02970   0.26670  -3.27030    13    14    94    68
 C    -2.51810  -0.96570  -3.53310    14    13    15    97
 C    -1.24500  -0.90740  -4.08260    15     7    70    14
 C     4.68350   1.01170   0.85870    16    18    17    38
 C     4.71790  -0.32330   1.12240    17    21    19    16
 C     4.62840   1.43380  -0.42170    18    37    16     3
 C     4.66700  -1.22840   0.11750    19    17     6    23
 C     2.30590  -1.62120   3.30780    20    28    22    43
 C     4.03790  -0.55700   2.25850    21    17    22    42
 C     3.35820  -1.75140   2.44690    22    20    21    25
 C     3.93620  -2.37530   0.22920    23    19    30    25
 C     2.12110  -3.56690   1.28020    24    25    27    33
 C     3.26700  -2.72720   1.39810    25    23    24    22
 C    -0.14780  -3.85080   2.09820    26    34    27    87
 C     1.15170  -3.47640   2.32180    27    26    28    24
 C     1.26080  -2.47770   3.28380    28    20    89    27
 C     2.32220  -3.45310  -1.21180    29    30    12    33
 C     3.44420  -2.68310  -1.02600    30    29    23     5
 C    -0.36430  -4.14550  -1.38610    31    11    32    91
 C     0.28410  -4.34720  -0.18310    32    34    31    33
 C     1.65380  -3.98410  -0.04300    33    32    29    24
 C    -0.58040  -4.29860   0.88220    34    26    32    93
 C    -0.32780   3.63450   2.29880    35    36    51    47
 C     0.96030   3.75660   1.85250    36    35    49    41
 C     3.87270   2.50050  -0.73770    37    18    40    61
 C     3.94730   1.64090   1.82760    38    16    42    39
 C     3.15850   2.76070   1.58910    39    38    40    41
 C     3.17380   3.21490   0.22620    40    48    37    39
 C     1.98900   2.95540   2.40230    41    36    39    45
 C     3.57080   0.67520   2.73130    42    44    38    21
 C     1.85630  -0.40190   3.82140    43    55    44    20
 C     2.42860   0.80360   3.48260    44    42    43    45
 C     1.59730   1.94370   3.38340    45    44    46    41
 C     0.20470   1.78390   3.74980    46    47    56    45
 C    -0.69820   2.67890   3.22500    47    46    58    35
 C     2.07420   3.84990  -0.25790    48    49    40    59
 C     1.02520   4.17570   0.52580    49    48    53    36
 C    -2.47130   3.22250   2.03270    50    54    51    58
 C    -1.43400   3.93040   1.52720    51    50    35    52
 C    -1.36070   4.25080   0.17260    52    53    51    72
 C    -0.08490   4.34360  -0.28510    53    52    65    49
 C    -3.48220   2.87770   1.23770    54    50    85    71
 C     0.52680  -0.54090   4.12010    55    43    89    56
 C    -0.37520   0.51510   4.11570    56    55    46    81
 C    -2.62550   1.18080   3.32870    57    58    81    84
 C    -2.03650   2.40940   3.05060    58    50    47    57
 C     1.59830   3.69410  -1.56340    59    65    60    48
 C     2.17250   2.82240  -2.46030    60    61    59    62
 C     3.35130   2.27160  -2.01850    61    60     2    37
 C     1.34070   2.13450  -3.37430    62    60    63    67
 C     1.79400   0.80860  -3.75700    63    64     1    62
 C     0.82640  -0.07750  -4.15770    64    63    70     8
 C     0.26510   3.98150  -1.56960    65    59    53    66
 C    -0.63610   3.43080  -2.46880    66    65    73    67
 C    -0.08350   2.46410  -3.39980    67    69    66    62
 C    -2.29490   1.45550  -3.43750    68    74    69    13
 C    -0.98220   1.47800  -3.87750    69    70    68    67
 C    -0.50460   0.24880  -4.24060    70    69    64    15
 C    -3.44740   3.17370  -0.09670    71    76    54    72
 C    -2.36220   3.81630  -0.70940    72    71    52    73
 C    -1.99650   3.38580  -2.02860    73    74    66    72
 C    -2.78910   2.37510  -2.56760    74    68    77    73
 C    -4.56370   1.24210   0.23370    75    76    85    79
 C    -4.14730   2.16740  -0.68470    76    77    71    75
 C    -3.83010   1.76730  -1.90890    77    76    94    74
 C    -4.42430  -0.93230   0.97910    78    99    79    83
 C    -4.67340  -0.10660  -0.08880    79    78    75    95
 C    -2.11870  -1.19170   3.62710    80    82    88    81
 C    -1.77060   0.18070   3.88280    81    57    80    56
 C    -3.21550  -1.44480   2.79070    82    83    90    80
 C    -3.97290  -0.46590   2.22740    83    82    84    78
 C    -3.74160   0.85370   2.49660    84    83    85    57
 C    -4.12630   1.70020   1.46930    85    54    84    75
 C    -2.29100  -3.40890   1.91830    86    90    93    87
 C    -1.22840  -3.26470   2.74310    87    86    88    26
 C    -1.11400  -2.18320   3.60300    88    89    87    80
 C     0.16920  -1.83770   3.85570    89    88    55    28
 C    -3.27790  -2.51870   1.93770    90    86    99    82
 C    -1.73150  -3.82260  -1.50340    91    98    92    31
 C    -2.56320  -3.70520  -0.42670    92    91    93   100
 C    -1.93290  -4.01510   0.76570    93    86    92    34
 C    -3.94440   0.45130  -2.27380    94    13    77    95
 C    -4.34760  -0.57200  -1.39670    95    94    79    96
 C    -3.79120  -1.88260  -1.61320    96    97    95   100
 C    -2.89630  -2.06950  -2.72240    97    98    14    96
 C    -1.91600  -3.05710  -2.61190    98    91    10    97
 C    -3.95240  -2.19830   0.78630    99    78    90   100
 C    -3.61120  -2.73440  -0.46350   100    99    92    96
