   100
C100-Cs-85                                                                      
 C     1.66390   4.15630   0.06880     1     2     5    62
 C     2.85790   3.61310   0.30510     2     1    64    15
 C    -0.94940   4.37530  -0.71750     3     4     6    61
 C    -0.01650   4.11740  -1.60960     4     3     5     7
 C     1.25980   4.05800  -1.26130     5     4    13     1
 C    -2.20680   3.95760  -0.91490     6     3    78     9
 C    -0.27070   3.26440  -2.64960     7     4     8    18
 C    -1.50900   2.71310  -2.85630     8     7    30     9
 C    -2.58320   3.14280  -2.00070     9    11     6     8
 C    -3.68980   1.10390  -2.41790    10    11   100    29
 C    -3.68400   2.31860  -1.76920    11    10     9    12
 C    -4.31970   2.30390  -0.51660    12    77    97    11
 C     1.89370   3.23920  -2.16910    13    14     5    18
 C     3.08020   2.66700  -1.91100    14    13    15    21
 C     3.63520   2.99290  -0.66900    15    16     2    14
 C     4.50510   2.19810  -0.04790    16    15    17    44
 C     4.94470   1.07460  -0.64690    17    16    35    22
 C     0.92340   2.66700  -2.96280    18     7    13    19
 C     1.03720   1.37320  -3.47290    19    18    20    31
 C     2.28880   0.70320  -3.22360    20    24    19    21
 C     3.33700   1.39900  -2.48610    21    22    14    20
 C     4.31880   0.66320  -1.82800    22    26    21    17
 C     1.03260  -1.40730  -3.46070    23    27    32    24
 C     2.28960  -0.73770  -3.21800    24    20    23    25
 C     3.33560  -1.43450  -2.48050    25    26    39    24
 C     4.32340  -0.70260  -1.82430    26    22    36    25
 C     0.92100  -2.70260  -2.94580    27    96    38    23
 C    -1.47370  -1.44200  -3.42590    28    33    95    32
 C    -2.61450   0.67330  -3.19230    29    33    30    10
 C    -1.46820   1.41540  -3.43180    30    29     8    31
 C    -0.22070   0.70760  -3.70720    31    19    32    30
 C    -0.22320  -0.73520  -3.70270    32    31    23    28
 C    -2.62090  -0.69600  -3.19010    33    29    28    91
 C     4.49100  -2.21190  -0.04020    34    37    36    40
 C     5.26540  -0.01560   0.08720    35    36    17    42
 C     4.94880  -1.10180  -0.64540    36    34    35    26
 C     3.61500  -3.01440  -0.64990    37    34    58    39
 C     1.88810  -3.28080  -2.14960    38    39    59    27
 C     3.06970  -2.69680  -1.90240    39    38    37    25
 C     4.18660  -2.19910   1.29860    40    41    45    34
 C     4.36340  -1.07170   1.98980    41    40    42    50
 C     4.96230   0.00980   1.43880    42    43    41    35
 C     4.37700   1.09510   1.99530    43    44    42    65
 C     4.20090   2.21290   1.29230    44    43    64    16
 C     3.11230  -2.99690   1.52170    45    40    58    48
 C    -1.33450  -0.68170   3.60400    46    87    51    68
 C     1.05040  -0.72950   3.54670    47    49    51    66
 C     2.09030  -2.70940   2.45400    48    45    55    49
 C     2.20990  -1.43320   3.11130    49    50    47    48
 C     3.35120  -0.67540   2.84300    50    65    41    49
 C    -0.18350  -1.44820   3.49440    51    46    47    56
 C    -1.65900  -3.11710   2.40890    52    57    86    56
 C    -0.62400  -4.34910   0.62980    53    57    54    90
 C     0.65700  -4.14730   1.08690    54    53    60    55
 C     0.82980  -3.32930   2.26720    55    48    56    54
 C    -0.33700  -2.75010   2.87280    56    55    52    51
 C    -1.73240  -3.91910   1.27150    57    53    83    52
 C     2.84210  -3.62870   0.32940    58    60    45    37
 C     1.25040  -4.10100  -1.24410    59    88    38    60
 C     1.65020  -4.17420   0.08450    60    58    59    54
 C    -0.61630   4.36020   0.62160    61    73    62     3
 C     0.66520   4.15370   1.06860    62    61     1    71
 C     2.10290   2.73250   2.44250    63    64    71    67
 C     3.12880   3.00940   1.51160    64    44     2    63
 C     3.35950   0.70470   2.84850    65    50    43    67
 C     1.05370   0.75780   3.54410    66    67    69    47
 C     2.21340   1.45870   3.11180    67    65    66    63
 C    -1.33340   0.70710   3.59710    68    74    69    46
 C    -0.18230   1.47180   3.48600    69    68    66    70
 C    -0.33420   2.77000   2.85930    70    71    69    72
 C     0.83750   3.34440   2.25410    71    63    70    62
 C    -1.65700   3.13540   2.39150    72    73    75    70
 C    -1.73160   3.93940   1.25610    73    61    78    72
 C    -2.58490   1.11870   3.20030    74    75    68    79
 C    -2.79330   2.31700   2.57890    75    74    76    72
 C    -3.85980   2.29670   1.66160    76    77    82    75
 C    -3.77410   3.02070   0.51590    77    78    76    12
 C    -2.74860   3.82100   0.32690    78    77     6    73
 C    -3.36490   0.00860   2.96480    79    87    74    81
 C    -4.59780  -1.16900   1.39150    80    81    85    98
 C    -4.40850   0.01510   2.05460    81    82    80    79
 C    -4.61430   1.18300   1.37700    82    81    76    97
 C    -2.74140  -3.80460   0.33220    83    84    89    57
 C    -3.76240  -2.99550   0.53540    84    83    85    92
 C    -3.84960  -2.28500   1.68420    85    84    80    86
 C    -2.78890  -2.29520   2.60400    86    87    85    52
 C    -2.58620  -1.09560   3.21590    87    86    79    46
 C    -0.02640  -4.14990  -1.60560    88    90    59    96
 C    -2.21900  -3.97600  -0.91310    89    90    83    94
 C    -0.96440  -4.39470  -0.71080    90    88    89    53
 C    -3.69720  -1.12080  -2.41740    91    93   100    33
 C    -4.30810  -2.29420  -0.50620    92    84    98    93
 C    -3.68440  -2.33130  -1.76660    93    91    94    92
 C    -2.59030  -3.16420  -1.99990    94    93    89    95
 C    -1.51220  -2.74350  -2.85550    95    96    28    94
 C    -0.27840  -3.30140  -2.64890    96    88    95    27
 C    -4.90540   1.18120   0.01470    97    12    99    82
 C    -4.89120  -1.16880   0.02360    98    92    99    80
 C    -4.97950   0.00330  -0.68800    99    97    98   100
 C    -4.34330  -0.00480  -1.92100   100    10    91    99
