   100
C100-C2-392                                                                     
 C    -0.44580  -4.57490   0.46940     1     2     6    57
 C     0.43500  -4.56870  -0.50430     2     1     3     7
 C     1.72190  -4.31560  -0.23950     3     2     4    56
 C     2.20180  -3.78020  -1.39830     4     5     3    16
 C     3.28380  -3.04740  -1.39140     5     4    15    54
 C    -1.73520  -4.31460   0.21630     6     1    75     9
 C     0.05890  -4.08240  -1.73900     7    16     8     2
 C    -1.21640  -3.67540  -2.02830     8     7    18     9
 C    -2.22920  -3.90600  -1.03790     9    11     6     8
 C    -3.52500  -2.17750  -1.97290    10    11   100    17
 C    -3.38830  -3.14120  -1.00570    11    10     9    12
 C    -3.97690  -2.77910   0.21080    12    98    76    11
 C     4.26980   0.09280  -1.98380    13    14    27    24
 C     4.30160  -1.19130  -1.68460    14    13    15    41
 C     3.39280  -2.01260  -2.26320    15    14     5    21
 C     1.17260  -3.51630  -2.27370    16     7     4    20
 C    -2.48180  -1.87490  -2.85500    17    32    18    10
 C    -1.29170  -2.55600  -2.92120    18    17     8    19
 C    -0.12140  -1.83060  -3.40880    19    20    18    22
 C     1.15650  -2.37710  -3.09990    20    16    21    19
 C     2.32320  -1.58220  -3.09560    21    20    23    15
 C    -0.20940  -0.38940  -3.69870    22    33    34    19
 C     2.23470  -0.19070  -3.36100    23    24    21    34
 C     3.27510   0.58330  -2.81190    24    38    13    23
 C     4.44580   1.57700   1.16750    25    31    42    26
 C     4.93960   0.66450   0.24120    26    25    27    40
 C     4.64960   1.03070  -1.07750    27    13    28    26
 C     3.99100   2.17260  -1.42270    28    27    30    38
 C     2.56150   3.84810  -0.75760    29    30    50    39
 C     3.65500   3.10600  -0.48740    30    29    28    31
 C     3.85370   2.76120   0.83290    31    25    30    49
 C    -2.57740  -0.55480  -3.20230    32    17    92    33
 C    -1.48360   0.25020  -3.57230    33    32    22    95
 C     0.97170   0.45050  -3.62990    34    23    22    36
 C    -0.47540   2.46480  -3.11380    35    95    36    96
 C     0.83640   1.88510  -3.32810    36    37    35    34
 C     1.96320   2.56100  -2.74040    37    38    39    36
 C     3.13540   1.89420  -2.49710    38    24    37    28
 C     1.75860   3.62720  -1.88380    39    97    37    29
 C     4.87850  -0.70060   0.58300    40    41    44    26
 C     4.63400  -1.62610  -0.41740    41    54    14    40
 C     3.81220   1.16790   2.31040    42    43    45    25
 C     3.69310  -0.11720   2.58770    43    42    44    69
 C     4.25130  -1.06090   1.77980    44    43    52    40
 C     2.81050   2.02520   2.66840    45    42    49    46
 C     1.60890   1.61910   3.30020    46    67    45    68
 C     0.62140   3.59940   2.25910    47    48    51    67
 C    -0.52900   4.07220   1.65700    48    70    91    47
 C     2.89420   3.07540   1.78930    49    51    45    31
 C     1.72610   4.31560   0.22160    50    87    29    51
 C     1.81760   3.85300   1.54250    51    49    50    47
 C     3.51150  -2.20590   1.96610    52    53    44    58
 C     3.37480  -3.16420   0.99400    53    52    56    54
 C     3.95640  -2.79780  -0.22050    54    41     5    53
 C     1.20020  -3.69410   2.01030    55    57    56    61
 C     2.21100  -3.92480   1.02210    56    53     3    55
 C    -0.07850  -4.08910   1.71130    57    66    55     1
 C     2.47050  -1.90500   2.85290    58    69    61    52
 C     0.19920  -0.42310   3.69930    59    68    73    60
 C     0.10530  -1.86210   3.40100    60    65    61    59
 C     1.27810  -2.58280   2.91290    61    58    55    60
 C    -3.28910   0.56170   2.81880    62    74    79    63
 C    -2.24550  -0.21390   3.36030    63    62    64    73
 C    -2.33560  -1.60670   3.08520    64    65    63    77
 C    -1.17030  -2.40410   3.08350    65    66    64    60
 C    -1.19490  -3.53250   2.24450    66    57    75    65
 C     0.46590   2.43730   3.12590    67    46    72    47
 C     1.47520   0.21520   3.57790    68    69    59    46
 C     2.56760  -0.58670   3.20850    69    43    58    68
 C    -1.76620   3.59960   1.89440    70    48    71    83
 C    -1.96540   2.52900   2.75070    71    74    70    72
 C    -0.84090   1.85330   3.33890    72    71    67    73
 C    -0.98020   0.42040   3.63280    73    63    59    72
 C    -3.14480   1.87200   2.49450    74    62    71    86
 C    -2.22760  -3.79290   1.37500    75    76     6    66
 C    -3.30250  -3.05300   1.37590    76    75    77    12
 C    -3.41360  -2.01970   2.24880    77    80    76    64
 C    -4.66100   1.02070   1.08650    78    79    86    82
 C    -4.28990   0.07960   1.99530    79    80    78    62
 C    -4.32940  -1.19850   1.68400    80    79    77    98
 C    -4.45470   1.59820  -1.15450    81    84    93    82
 C    -4.95480   0.67100  -0.24290    82    81    99    78
 C    -2.56730   3.84660   0.77460    83    85    90    70
 C    -3.86550   2.78150  -0.80810    84    81    85    88
 C    -3.66530   3.11280   0.51330    85    83    86    84
 C    -4.00710   2.17030   1.42860    86    85    78    74
 C     0.54710   4.57950  -0.34450    87    91    50    97
 C    -2.90170   3.09780  -1.76760    88    89    94    84
 C    -1.81820   3.86980  -1.52940    89    88    90    96
 C    -1.73060   4.31850  -0.20090    90    91    83    89
 C    -0.55280   4.56810   0.36770    91    87    90    48
 C    -3.70880  -0.08640  -2.58170    92    93   100    32
 C    -3.81590   1.20060  -2.29910    93    92    94    81
 C    -2.81910   2.05560  -2.65510    94    93    88    95
 C    -1.62180   1.65050  -3.28920    95    94    35    33
 C    -0.61760   3.62790  -2.24440    96    97    89    35
 C     0.52650   4.10700  -1.64210    97    39    96    87
 C    -4.66850  -1.61590   0.41230    98    12    80    99
 C    -4.90370  -0.69080  -0.58680    99    98   100    82
 C    -4.27340  -1.03590  -1.78380   100    92    10    99
