   100
C100-C1-163                                                                     
 C    -4.51520   1.98210  -0.55790     1     5    18    62
 C    -1.11130   3.87780  -1.51510     2     3    72     6
 C    -2.38600   3.47620  -1.41280     3     2     4    64
 C    -2.90110   3.58890  -0.12680     4     5     3     8
 C    -3.93650   2.85670   0.28740     5     4     1    19
 C    -0.32360   4.27160  -0.42540     6    14     7     2
 C    -0.74920   4.11960   0.87180     7     8     6    10
 C    -2.06470   3.80970   0.97600     8     7    20     4
 C     1.57390   3.68400   1.46100     9    11    12    10
 C     0.18530   3.70870   1.85070    10     7     9    23
 C     2.42810   2.88930   2.18720    11     9    22   100
 C     2.00760   3.92570   0.11340    12    14    13     9
 C     3.19500   3.32150  -0.41100    13    99    15    12
 C     0.97040   4.15600  -0.77570    14     6    78    12
 C     3.11970   2.89920  -1.75860    15    77    96    13
 C    -4.84830   0.52050   1.24540    16    29    17    18
 C    -4.17360   1.38060   2.05700    17    19    16    26
 C    -5.01350   0.81000  -0.08480    18    40     1    16
 C    -3.73960   2.55240   1.59980    19    17    20     5
 C    -2.55750   3.06970   2.02010    20    19     8    24
 C     0.58360   1.90740   3.49240    21    22    23    36
 C     1.93950   2.04440   3.16290    22    92    11    21
 C    -0.32700   2.80810   2.89520    23    21    24    10
 C    -1.70550   2.44740   2.94170    24    20    23    25
 C    -2.14060   1.14320   3.40330    25    26    37    24
 C    -3.37460   0.67340   2.91620    26    17    30    25
 C    -3.62120  -2.78150   1.04800    27    41    28    33
 C    -4.51110  -1.78080   0.70650    28    27    29    39
 C    -4.54270  -0.74570   1.62170    29    16    28    30
 C    -3.63660  -0.65810   2.68600    30    32    26    29
 C    -1.46120  -1.26100   3.54660    31    32    35    37
 C    -2.69330  -1.61690   2.95480    32    30    33    31
 C    -2.75080  -2.72350   2.12770    33    54    32    27
 C     0.89100  -1.70280   3.59870    34    35    38    55
 C    -0.36220  -2.17800   3.34540    35    34    53    31
 C     0.15330   0.59620   3.91730    36    38    37    21
 C    -1.18410   0.16450   3.79580    37    36    25    31
 C     1.13980  -0.38580   3.91750    38    93    34    36
 C    -4.66270  -1.47150  -0.67530    39    43    40    28
 C    -4.84390  -0.15170  -1.02690    40    18    39    61
 C    -2.99360  -3.53830   0.10950    41    42    27    47
 C    -3.14250  -3.24090  -1.19310    42    45    41    43
 C    -3.90890  -2.18450  -1.57110    43    42    39    59
 C     0.16480  -3.56490  -2.33070    44    52    46    66
 C    -2.08980  -3.39850  -2.01360    45    42    46    65
 C    -0.90420  -3.95530  -1.59630    46    44    45    49
 C    -1.78670  -3.98370   0.58240    47    41    54    49
 C     0.60240  -4.20810   0.34640    48    49    51    57
 C    -0.69610  -4.26600  -0.22240    49    47    48    46
 C     2.88970  -3.49740  -0.08190    50    58    51    84
 C     1.69510  -3.98940  -0.54110    51    50    52    48
 C     1.42640  -3.62850  -1.85890    52    44    86    51
 C    -0.41770  -3.29250   2.43260    53    54    35    57
 C    -1.64120  -3.48680   1.85310    54    53    47    33
 C     2.05010  -2.23080   3.06580    55    34    88    56
 C     2.00680  -3.22960   2.11010    56    55    58    57
 C     0.75570  -3.75440   1.72660    57    56    53    48
 C     3.07570  -3.15200   1.23010    58    50    56    90
 C    -3.24600  -1.60570  -2.65120    59    65    60    43
 C    -3.27900  -0.24900  -2.92200    60    59    61    69
 C    -4.15850   0.44250  -2.10180    61    62    60    40
 C    -3.94990   1.75800  -1.80170    62    61     1    64
 C    -1.91950   1.79010  -3.18650    63    71    69    64
 C    -2.85130   2.45420  -2.29060    64    62     3    63
 C    -2.14940  -2.35540  -2.93660    65    59    67    45
 C     0.10880  -2.53790  -3.27570    66    73    67    44
 C    -1.03670  -1.82180  -3.53700    67    65    66    68
 C    -0.95400  -0.42800  -3.84030    68    67    70    69
 C    -2.11530   0.38840  -3.49330    69    60    63    68
 C     0.38410   0.12520  -3.94830    70    75    68    74
 C    -0.60210   2.30740  -3.30600    71    72    63    75
 C    -0.28050   3.39920  -2.47170    72    78     2    71
 C     1.35530  -2.01580  -3.38920    73    66    74    86
 C     1.58080  -0.69960  -3.74660    74    73    80    70
 C     0.52050   1.51950  -3.71040    75    76    70    71
 C     1.80200   1.95600  -3.33260    76    81    77    75
 C     2.00040   3.03700  -2.50810    77    78    15    76
 C     0.97290   3.69250  -2.06070    78    77    72    14
 C     3.76810  -0.95820  -2.51140    79    85    82    80
 C     2.84950  -0.19270  -3.32110    80    81    74    79
 C     2.90660   1.17250  -3.15280    81    76    80    96
 C     4.58920  -0.25600  -1.60190    82    97    87    79
 C     4.47950  -1.96080   0.00440    83    87    84    90
 C     3.74260  -2.71350  -0.85270    84    83    50    85
 C     3.38270  -2.24820  -2.11470    85    86    84    79
 C     2.20820  -2.74120  -2.57670    86    85    52    73
 C     4.92170  -0.74220  -0.35880    87    83    82    94
 C     3.03770  -1.26610   3.11740    88    93    55    89
 C     4.09800  -1.18880   2.23300    89    90    88    95
 C     4.07890  -2.19560   1.29150    90    83    89    58
 C     3.88810   1.19860   2.39500    91    92   100    95
 C     2.85910   1.04450   3.27520    92    93    91    22
 C     2.44930  -0.16240   3.63850    93    92    88    38
 C     4.98360   0.28980   0.55380    94    87    95    98
 C     4.55740   0.09860   1.85670    95    94    91    89
 C     3.73670   1.79070  -2.23550    96    97    15    81
 C     4.54830   1.09320  -1.45320    97    96    82    98
 C     4.73640   1.46370  -0.14120    98    97    94    99
 C     4.03520   2.54810   0.40650    99   100    98    13
 C     3.62680   2.36740   1.70730   100    99    91    11
