   100
C100-C1-292                                                                     
 C    -4.92010  -0.25690   0.48940     1     2     5    63
 C    -4.79570   1.09760   0.32220     2     1    41    15
 C    -3.88640  -2.81340   0.77810     3     4     6    62
 C    -3.86860  -1.95580   1.80590     4     3     5     7
 C    -4.37320  -0.71440   1.69040     5     4    13     1
 C    -2.89720  -3.72250   0.65720     6     3    69     9
 C    -2.79890  -1.95060   2.67490     7     8    24     4
 C    -1.77230  -2.86210   2.61460     8     7    26     9
 C    -1.84570  -3.85500   1.57190     9    11     6     8
 C     0.49540  -4.08550   1.69390    10    11   100    25
 C    -0.66760  -4.39180   1.07130    11    10     9    12
 C    -0.51400  -4.57410  -0.31000    12    68    98    11
 C    -3.64380   0.08490   2.55760    13    14    24     5
 C    -3.52800   1.42260   2.38870    14    13    15    19
 C    -4.19460   1.92130   1.25600    15    16     2    14
 C    -3.72020   3.00070   0.59290    16    17    15    40
 C    -2.71200   3.67510   1.10460    17    16    34    20
 C    -1.23880   1.28250   3.43870    18    28    30    19
 C    -2.34610   2.04360   2.86360    19    20    14    18
 C    -2.04190   3.23630   2.22770    20    22    17    19
 C     0.26290   3.10820   2.76410    21    23    22    30
 C    -0.80170   3.74540   2.16680    22    20    21    35
 C     1.46850   3.46040   2.21530    23    97    21    36
 C    -2.63020  -0.66270   3.13210    24     7    13    28
 C     0.56380  -3.11760   2.69860    25    90    26    10
 C    -0.52720  -2.40330   3.13550    26    25     8    27
 C    -0.27750  -1.03430   3.58870    27    28    31    26
 C    -1.39640  -0.13590   3.55550    28    24    18    27
 C     1.27420   0.93930   3.46850    29    31    96    30
 C     0.10800   1.82020   3.39150    30    21    18    29
 C     1.08230  -0.49360   3.56670    31    91    29    27
 C    -0.62140   4.09370  -1.66390    32    33    38    46
 C    -1.86290   4.08840  -1.08740    33    32    39    34
 C    -1.84380   4.32080   0.29640    34    17    35    33
 C    -0.68680   4.49230   0.98990    35    37    34    22
 C     1.59340   4.21990   1.04410    36    37    60    23
 C     0.49920   4.64460   0.37610    37    35    36    38
 C     0.52260   4.44140  -0.98990    38    59    32    37
 C    -2.82410   3.23860  -1.63450    39    33    40    42
 C    -3.83670   2.80980  -0.76210    40    41    16    39
 C    -4.51990   1.65850  -0.90690    41    44    40     2
 C    -2.44010   2.31010  -2.66910    42    43    47    39
 C    -3.17340   1.14630  -2.76220    43    42    44    52
 C    -4.23180   0.84370  -1.93020    44    41    64    43
 C     1.11360   3.06930  -2.61790    45    46    48    59
 C    -0.25090   3.20140  -2.65630    46    45    47    32
 C    -1.09890   2.22660  -3.14430    47    46    42    50
 C     1.77580   1.94230  -3.07380    48    45    57    49
 C     0.95380   0.84040  -3.55820    49    54    50    48
 C    -0.48750   0.98390  -3.59720    50    51    49    47
 C    -1.29980  -0.20230  -3.59500    51    52    50    75
 C    -2.64020  -0.04760  -3.20350    52    43    65    51
 C     2.83190  -0.59410  -3.04940    53    77    58    54
 C     1.51120  -0.48690  -3.49970    54    53    74    49
 C     4.44540   1.99120  -0.54760    55    83    88    56
 C     3.59000   2.60450  -1.47890    56    61    55    57
 C     3.08660   1.76510  -2.54590    57    58    48    56
 C     3.59490   0.48460  -2.61330    58    84    57    53
 C     1.60650   3.88150  -1.60920    59    61    38    45
 C     2.72480   3.82220   0.41250    60    86    36    61
 C     2.78480   3.61860  -0.97250    61    59    56    60
 C    -4.29130  -2.35940  -0.46150    62    63     3    67
 C    -4.78670  -1.09580  -0.64230    63    62    64     1
 C    -4.36630  -0.49310  -1.82630    64    44    65    63
 C    -3.41660  -1.05870  -2.66330    65    66    52    64
 C    -2.91600  -2.30520  -2.47900    66    65    67    73
 C    -3.44440  -2.97720  -1.36450    67    69    62    66
 C    -1.50070  -4.20720  -1.14980    68    69    12    70
 C    -2.68920  -3.87070  -0.69010    69    68    67     6
 C    -0.95060  -3.59060  -2.25010    70    71    68    73
 C     0.39850  -3.71400  -2.13930    71    70    72    98
 C     1.28110  -2.82990  -2.73060    72    71    78    74
 C    -1.58790  -2.55190  -2.91350    73    70    66    75
 C     0.69830  -1.66730  -3.40080    74    54    75    72
 C    -0.73590  -1.52280  -3.47040    75    51    74    73
 C     4.39110  -1.32280  -1.64810    76    84    79    77
 C     3.35410  -1.72970  -2.43950    77    76    78    53
 C     2.58730  -2.84200  -2.17540    78    77    72    81
 C     4.60230  -1.92280  -0.45050    79    80    76    85
 C     3.83940  -2.97390  -0.11320    80    79    92    81
 C     2.88110  -3.55690  -0.95060    81    99    80    78
 C     5.00460   0.15230   0.53410    82    85    87    83
 C     4.93600   0.75200  -0.70050    83    55    84    82
 C     4.55680   0.00990  -1.75960    84    76    83    58
 C     4.83870  -1.15550   0.66270    85    82    93    79
 C     3.36440   2.98950   1.26280    86    88    60    97
 C     4.45650   0.97670   1.47380    87    88    82    95
 C     4.25300   2.14450   0.81410    88    86    87    55
 C     2.53350  -3.32980   1.77880    89    92   100    90
 C     1.83280  -2.62980   2.73620    90    25    89    91
 C     2.17980  -1.34130   3.15680    91    90    94    31
 C     3.61950  -2.82580   1.24560    92    89    93    80
 C     4.11940  -1.65380   1.70640    93    92    85    94
 C     3.41510  -0.84300   2.64150    94    95    93    91
 C     3.59560   0.54160   2.53030    95    94    96    87
 C     2.55030   1.41510   2.95100    96    97    95    29
 C     2.55550   2.67050   2.33220    97    23    86    96
 C     0.67940  -4.39650  -0.95800    98    99    12    71
 C     1.85650  -4.24510  -0.31500    99    98    81   100
 C     1.71020  -4.11970   1.06960   100    89    10    99
