   100
C100-C2-350                                                                     
 C    -4.48490  -1.86630  -0.42050     1     2     7    62
 C    -4.03350  -2.47780   0.72760     2     4     3     1
 C    -3.95460  -1.70590   1.86140     3    61     2    10
 C    -3.05500  -3.41340   0.56720     4     2     8     5
 C    -2.51480  -3.72680  -0.66690     5    24     6     4
 C    -2.86900  -3.05830  -1.81510     6     5     7    21
 C    -3.90180  -2.14130  -1.64790     7    67     1     6
 C    -2.06710  -3.60460   1.51470     8    14     4     9
 C    -1.91770  -2.80810   2.64170     9    10     8    11
 C    -2.90510  -1.84830   2.76310    10    27     9     3
 C    -0.62730  -2.57100   3.17040    11     9    12    17
 C    -0.41470  -1.27970   3.79080    12    13    26    11
 C     0.88040  -0.83990   3.86680    13    12    19    28
 C    -0.98840  -4.14430   0.89430    14     8    16    24
 C     1.26480  -4.17890   0.47400    15    45    16    25
 C     0.26880  -4.05220   1.42210    16    14    15    17
 C     0.50970  -3.27790   2.59750    17    18    16    11
 C     1.83310  -2.78080   2.75780    18    19    17    46
 C     1.95470  -1.56960   3.42980    19    41    13    18
 C    -1.94730  -1.59840  -3.43550    20    66    95    21
 C    -1.82410  -2.80720  -2.75540    21    20    22     6
 C    -0.49790  -3.30000  -2.59050    22    21    23    97
 C    -0.25590  -4.07220  -1.41340    23    25    24    22
 C    -1.25780  -4.19210  -0.47540    24     5    23    14
 C     1.00320  -4.15540  -0.89670    25   100    23    15
 C    -1.41410  -0.25790   3.81170    26    27    12    30
 C    -2.66230  -0.61390   3.32220    27    49    10    26
 C     1.24420   0.50220   3.84240    28    29    33    13
 C     0.33100   1.52110   3.72500    29    28    36    30
 C    -1.06290   1.15060   3.75860    30    31    29    26
 C    -2.02030   2.04100   3.17680    31    32    48    30
 C    -1.49010   3.16350   2.55050    32    37    50    31
 C     2.54200   0.58520   3.39820    33    41    28    34
 C     3.06550   1.67390   2.69770    34    33    43    35
 C     2.16480   2.76410   2.49260    35    34    39    36
 C     0.83130   2.69090   3.05810    36    37    29    35
 C    -0.15300   3.46350   2.47780    37    32    36    57
 C     3.35160   3.14620   0.41380    38    44    83    39
 C     2.34960   3.55720   1.30130    39    38    56    35
 C     3.95310  -0.97680   2.34550    40    41    47    42
 C     2.98100  -0.69540   3.21180    41    40    19    33
 C     4.52200   0.02670   1.62450    42    40    87    43
 C     4.11010   1.35490   1.77830    43    44    42    34
 C     4.19850   2.10070   0.62830    44    38    43    90
 C     2.52310  -3.71690   0.67100    45    15    46    91
 C     2.87670  -3.04410   1.81910    46    45    47    18
 C     3.91770  -2.13610   1.63980    47    40    94    46
 C    -3.26820   1.59790   2.67380    48    49    52    31
 C    -3.56870   0.26770   2.78140    49    48    27    61
 C    -2.08510   3.72320   1.44610    50    51    53    32
 C    -3.19380   3.22480   0.91960    51    50    52    69
 C    -3.83000   2.20780   1.54220    52    51    59    48
 C    -1.14870   4.27430   0.65440    53    50    57    54
 C    -1.26430   4.21200  -0.73760    54    55    53    68
 C    -0.05780   4.18450  -1.35440    55    54    70    58
 C     1.25480   4.21970   0.70800    56    57    58    39
 C     0.05370   4.19920   1.32890    57    56    37    53
 C     1.14700   4.27050  -0.68350    58    84    55    56
 C    -4.54080   1.53450   0.57530    59    60    52    63
 C    -4.85180   0.21160   0.73050    60    59    62    61
 C    -4.36590  -0.40070   1.86930    61     3    60    49
 C    -4.87440  -0.53550  -0.42640    62    60    65     1
 C    -4.20540   2.09730  -0.66010    63    69    64    59
 C    -4.11900   1.33930  -1.80300    64    63    65    73
 C    -4.51980   0.01270  -1.64860    65    67    62    64
 C    -2.97040  -0.71220  -3.22300    66    67    74    20
 C    -3.95010  -0.98900  -2.36380    67    66    65     7
 C    -2.35900   3.55070  -1.33100    68    69    54    72
 C    -3.36160   3.14700  -0.44650    69    63    51    68
 C     0.14900   3.45320  -2.50630    70    75    55    71
 C    -0.83590   2.67530  -3.08050    71    70    78    72
 C    -2.17110   2.75160  -2.51710    72    73    68    71
 C    -3.06640   1.65720  -2.71970    73    74    72    64
 C    -2.53350   0.56910  -3.41560    74    66    79    73
 C     1.48940   3.16120  -2.57030    75    70    84    76
 C     2.01480   2.03090  -3.18900    76    75    86    77
 C     1.06350   1.13200  -3.76690    77    76    78    81
 C    -0.33100   1.49990  -3.73690    78    79    71    77
 C    -1.23600   0.47470  -3.85570    79    78    74    95
 C     2.66360  -0.63100  -3.32370    80    85    98    81
 C     1.41460  -0.27580  -3.81600    81    80    96    77
 C     3.83390   2.21550  -1.56780    82    83    90    86
 C     3.19660   3.23670  -0.95290    83    84    82    38
 C     2.08700   3.73040  -1.47230    84    83    58    75
 C     3.56630   0.25560  -2.78150    85    86    80    88
 C     3.26480   1.58540  -2.68600    86    85    82    76
 C     4.89640  -0.53350   0.41170    87    89    94    42
 C     4.36700  -0.40650  -1.86730    88    92    85    89
 C     4.86410   0.22120  -0.73660    89    90    87    88
 C     4.55170   1.54090  -0.60300    90    89    82    44
 C     3.07640  -3.42040  -0.56760    91    93   100    45
 C     3.96580  -1.71900  -1.85670    92    88    93    98
 C     4.05750  -2.48460  -0.71570    93    91    94    92
 C     4.51210  -1.86520   0.42170    94    93    47    87
 C    -0.87350  -0.86920  -3.87620    95    20    96    79
 C     0.42400  -1.30530  -3.79290    96    95    81    97
 C     0.64030  -2.59330  -3.16610    97    99    96    22
 C     2.91750  -1.86490  -2.76150    98    80    99    92
 C     1.93270  -2.82550  -2.63470    99    98   100    97
 C     2.08470  -3.62150  -1.51030   100    25    91    99
