   100
C100-C1-216                                                                     
 C    -0.61670   4.21520   0.87000     1    63     4     2
 C     0.74820   4.14230   0.69740     2     1    61     3
 C     1.23650   4.06680  -0.66310     3     6    14     2
 C    -1.50720   4.21630  -0.17620     4     5    12     1
 C    -1.05270   4.06880  -1.41390     5     4     8     6
 C     0.27560   3.97950  -1.66050     6     5    20     3
 C    -3.23260   1.64180  -2.67980     7     9    99    27
 C    -1.76830   3.36090  -2.31700     8     5    26     9
 C    -2.98740   2.78690  -1.98260     9     7     8    10
 C    -3.49560   2.91600  -0.67240    10    12     9    11
 C    -4.23000   1.83240  -0.08430    11    13    98    10
 C    -2.69830   3.68200   0.19200    12    73     4    10
 C    -4.10900   1.67020   1.29350    13    81    74    11
 C     2.46090   3.48920  -0.97320    14     3    15    17
 C     3.23610   3.13510   0.12500    15    16    14    56
 C     4.21720   2.20540   0.05250    16    19    15    34
 C     2.64470   2.72330  -2.19830    17    18    21    14
 C     3.63230   1.75020  -2.15970    18    19    24    17
 C     4.43480   1.51790  -1.08470    19    16    35    18
 C     0.40940   3.20220  -2.79740    20    21    26     6
 C     1.54720   2.48920  -3.08150    21    20    17    22
 C     1.37200   1.23720  -3.79600    22    23    21    29
 C     2.39270   0.27770  -3.59620    23    24    25    22
 C     3.49450   0.54620  -2.82060    24    23    18    36
 C     2.06550  -1.06100  -3.63410    25    31    23    38
 C    -0.84830   2.80860  -3.18840    26    28    20     8
 C    -2.31920   1.08340  -3.58770    27    92    28     7
 C    -1.06630   1.62160  -3.84100    28    26    27    29
 C     0.03010   0.77510  -4.14260    29    28    30    22
 C    -0.24990  -0.64510  -4.20330    30    31    93    29
 C     0.80550  -1.49720  -3.91980    31    25    88    30
 C     4.64680   0.27380   1.29610    32    41    34    33
 C     4.86240  -0.42400   0.14490    33    35    32    49
 C     4.30860   1.58260   1.25420    34    32    16    55
 C     4.75720   0.20030  -1.04300    35    33    36    19
 C     4.17510  -0.42950  -2.08170    36    35    37    24
 C     3.71620  -1.73710  -1.97510    37    38    36    48
 C     2.69140  -2.01740  -2.83130    38    50    37    25
 C     2.29720  -0.93180   3.58760    39    40    57    45
 C     3.17730  -0.00770   3.14090    40    39    41    54
 C     4.06320  -0.52370   2.20100    41    32    40    42
 C     3.90990  -1.78290   1.60810    42    44    49    41
 C     2.29820  -3.50200   1.01540    43    44    47    52
 C     2.91440  -2.64830   1.97100    44    42    45    43
 C     2.17490  -2.22470   3.05020    45    70    44    39
 C     0.14140  -4.30370   0.24920    46    53    47    83
 C     0.94850  -3.95180   1.31150    47    46    69    43
 C     3.76410  -2.42120  -0.71380    48    49    37    52
 C     4.35900  -1.69240   0.31240    49    42    33    48
 C     1.79850  -3.00350  -2.58910    50    38    88    51
 C     1.80110  -3.70640  -1.38450    51    53    50    52
 C     2.73740  -3.37530  -0.37570    52    51    48    43
 C     0.55520  -4.18300  -1.05990    53    51    46    90
 C     2.75840   1.36240   3.10230    54    55    40    59
 C     3.37030   2.10650   2.10070    55    34    56    54
 C     2.72290   3.11920   1.43020    56    61    55    15
 C     1.10030  -0.56310   4.10970    57    39    64    58
 C     0.60940   0.75990   4.13170    58    57    65    59
 C     1.44360   1.76290   3.53740    59    58    54    60
 C     0.79160   2.89800   2.89780    60    62    59    61
 C     1.46160   3.54190   1.77370    61    56     2    60
 C    -0.63760   2.98340   2.97020    62    63    66    60
 C    -1.28180   3.69450   1.94620    63     1    73    62
 C     0.30810  -1.67150   4.00250    64    67    70    57
 C    -0.80500   0.86220   4.15720    65    66    68    58
 C    -1.43820   1.98610   3.59860    66    65    75    62
 C    -0.99650  -1.55890   3.99980    67    64    68    71
 C    -1.55870  -0.33580   4.12500    68    67    77    65
 C     0.21610  -3.53140   2.46320    69    70    47    72
 C     0.91560  -2.65760   3.28760    70    45    64    69
 C    -1.77250  -2.41240   3.26420    71    67    76    72
 C    -1.22350  -3.40320   2.45930    72    71    84    69
 C    -2.56950   3.43270   1.51420    73    74    12    63
 C    -3.27510   2.46690   2.06300    74    73    75    13
 C    -2.75380   1.77990   3.10220    75    74    78    66
 C    -2.91780  -1.70940   2.96810    76    77    71    79
 C    -2.78360  -0.47480   3.55300    77    78    68    76
 C    -3.38580   0.57320   3.04410    78    77    75    81
 C    -3.67060  -1.92340   1.81470    79    76    87    80
 C    -4.33580  -0.75840   1.25580    80    81    97    79
 C    -4.16860   0.45300   1.92380    81    78    13    80
 C    -1.63600  -4.05730  -1.01830    82    85    90    83
 C    -1.24580  -4.21420   0.27390    83    82    46    84
 C    -1.99680  -3.71240   1.33110    84    83    72    87
 C    -2.75230  -3.40130  -1.33400    85    82    95    86
 C    -3.53750  -2.87130  -0.33880    86    85   100    87
 C    -3.21190  -2.98930   1.00530    87    86    79    84
 C     0.65010  -2.73160  -3.32380    88    89    31    50
 C    -0.57330  -3.22190  -2.99600    89    88    90    96
 C    -0.56480  -3.99880  -1.84720    90    82    53    89
 C    -3.58630  -0.49900  -2.77850    91    94    99    92
 C    -2.54430  -0.25510  -3.64230    92    27    91    93
 C    -1.54890  -1.18190  -3.93150    93    92    30    96
 C    -3.70330  -1.67520  -2.17560    94    91    95   100
 C    -2.80570  -2.64710  -2.46850    95    94    85    96
 C    -1.71110  -2.46980  -3.32570    96    95    89    93
 C    -4.53930  -0.64640  -0.14500    97   100    80    98
 C    -4.47510   0.63990  -0.81480    98    99    11    97
 C    -3.98530   0.63200  -2.13100    99    91     7    98
 C    -4.15940  -1.76280  -0.88130   100    94    86    97
