   100
C100-C1-283                                                                     
 C    -3.57940  -0.45450  -2.64780     1     2    12    65
 C    -3.22160  -1.75580  -2.53280     2     1     3     7
 C    -3.76190  -2.40570  -1.40680     3     4    64     2
 C    -3.09900  -3.40360  -0.79610     4     5     3    28
 C    -2.01090  -3.88410  -1.35640     5     4    22     8
 C    -1.00340  -1.18610  -3.58990     6    16    18     7
 C    -1.95820  -2.14430  -3.04310     7     8     2     6
 C    -1.44670  -3.29150  -2.46590     8    10     5     7
 C     0.79800  -2.75670  -3.00350     9    11    10    18
 C    -0.14010  -3.59420  -2.44030    10     8     9    23
 C     2.05040  -2.93480  -2.47110    11   100     9    24
 C    -2.72020   0.47790  -3.19650    12    70     1    16
 C     0.00040   3.37300  -2.58980    13    93    14    75
 C    -0.93810   2.52850  -3.13550    14    13    72    15
 C    -0.45050   1.25730  -3.64020    15    16    14    19
 C    -1.40880   0.18550  -3.65000    16    12     6    15
 C     1.42190  -0.41390  -3.57790    17    19    99    18
 C     0.42040  -1.48370  -3.56280    18     9     6    17
 C     0.98250   0.96360  -3.60580    19    17    94    15
 C     0.15370  -4.22520   1.36810    20    21    29    26
 C    -1.08980  -4.32650   0.79940    21    20    22    27
 C    -1.04740  -4.43570  -0.59740    22     5    23    21
 C     0.11070  -4.38010  -1.31280    23    25    22    10
 C     2.31390  -3.74090  -1.35520    24    25    46    11
 C     1.31460  -4.39190  -0.71810    25    23    24    26
 C     1.33020  -4.32200   0.65850    26    45    20    25
 C    -2.16970  -3.66490   1.41870    27    28    21    31
 C    -3.22410  -3.30480   0.57070    28    49     4    27
 C     0.39800  -3.42070   2.45480    29    20    30    34
 C    -0.59390  -2.66510   3.04740    30    29    37    31
 C    -1.95270  -2.81690   2.56260    31    32    27    30
 C    -2.88010  -1.75400   2.77900    32    33    31    48
 C    -2.37230  -0.62170   3.41190    33    50    38    32
 C     1.73720  -3.06380   2.42720    34    45    29    35
 C     2.23290  -1.89360   2.98870    35    34    43    36
 C     1.25390  -1.02810   3.59650    36    37    35    40
 C    -0.11650  -1.45210   3.63720    37    38    30    36
 C    -1.05830  -0.46490   3.77690    38    37    33    57
 C     2.75240   0.80550   3.15130    39    40    44    77
 C     1.53210   0.39710   3.62450    40    39    56    36
 C     4.75630  -1.18690   0.41520    41    86    91    42
 C     4.06250  -2.03500   1.29850    42    47    41    43
 C     3.46000  -1.41140   2.45480    43    44    35    42
 C     3.70390  -0.05540   2.62160    44    87    43    39
 C     2.32750  -3.66020   1.32740    45    26    47    34
 C     3.37310  -3.21120  -0.69190    46    89    24    47
 C     3.43020  -3.13090   0.70680    47    45    42    46
 C    -3.98630  -1.50640   1.90830    48    49    52    32
 C    -4.09280  -2.28310   0.78340    49    28    48    64
 C    -2.87910   0.63190   3.22540    50    51    33    58
 C    -3.91450   0.84400   2.41760    51    50    54    52
 C    -4.46440  -0.20430   1.74790    52    51    62    48
 C    -2.76590   3.67330   0.67870    53    84    55    67
 C    -3.97960   1.99900   1.71370    54    51    66    55
 C    -2.98690   2.97290   1.83020    55    53    54    60
 C     0.50310   1.39000   3.60920    56    57    40    61
 C    -0.76420   0.89410   3.75080    57    58    56    38
 C    -1.88730   1.56700   3.36920    58    57    50    60
 C    -0.55920   3.34350   2.44260    59    83    60    61
 C    -1.85920   2.77910   2.68680    60    58    55    59
 C     0.63680   2.69070   2.96180    61    78    59    56
 C    -4.91590   0.31560   0.54610    62    63    66    52
 C    -4.87100  -0.44970  -0.59710    63    64    62    65
 C    -4.49580  -1.74840  -0.44490    64    63     3    49
 C    -4.42470   0.18220  -1.74320    65    69    63     1
 C    -4.61640   1.66760   0.52450    66    68    62    54
 C    -3.36640   3.31680  -0.53710    67    68    71    53
 C    -4.26200   2.29730  -0.64330    68    67    66    69
 C    -4.13200   1.50850  -1.77280    69    65    68    70
 C    -3.11350   1.69680  -2.69450    70    72    12    69
 C    -2.45540   3.57420  -1.52630    71    73    67    72
 C    -2.24350   2.72760  -2.62500    72    70    71    14
 C    -1.43210   4.21030  -0.93700    73    75    71    84
 C     0.84830   4.33980  -0.75720    74    75    92    82
 C    -0.25380   4.18280  -1.49610    75    73    74    13
 C     4.03810   1.95000   1.77550    76    79    87    77
 C     2.94490   2.06700   2.59710    77    76    39    78
 C     1.90890   2.99420   2.40130    78    77    61    81
 C     4.08730   2.66430   0.63870    79    76    80    88
 C     3.10250   3.54220   0.38000    80    79    95    81
 C     2.01430   3.81890   1.23780    81    82    80    78
 C     0.84300   4.31650   0.66080    82    81    83    74
 C    -0.42240   4.15770   1.26730    83    84    82    59
 C    -1.54920   4.22840   0.43150    84    53    73    83
 C     4.93020   0.81190  -0.50820    85    88    90    86
 C     4.99780   0.11300   0.67140    86    41    87    85
 C     4.50020   0.67610   1.79210    87    86    76    44
 C     4.49490   2.06530  -0.53000    88    85    96    79
 C     3.84570  -2.21380  -1.47560    89    91    46   100
 C     4.55020  -0.02380  -1.52220    90    91    85    98
 C     4.57400  -1.25830  -0.95570    91    89    90    41
 C     1.83560   3.82000  -1.52100    92    95    74    93
 C     1.32170   3.12060  -2.59420    93    13    92    94
 C     1.90730   1.96030  -3.10230    94    93    97    19
 C     2.96600   3.48750  -0.98900    95    92    96    80
 C     3.70710   2.49700  -1.54470    96    88    95    97
 C     3.19450   1.65550  -2.57530    97    98    94    96
 C     3.62910   0.32410  -2.56040    98    97    99    90
 C     2.75870  -0.69090  -3.06370    99   100    98    17
 C     2.98680  -1.96350  -2.52640   100    11    89    99
