   100
C100-D2-2                                                                       
 C    -3.55970   3.13580  -0.76780     1     2    10    22
 C    -4.57210   2.53120  -0.13450     2     1     3    21
 C    -4.39840   2.20820   1.19070     3    66     2     6
 C    -3.50420   0.38780   2.94700     4    72     5    65
 C    -2.69850   1.51920   2.81500     5     4     6    14
 C    -3.18230   2.48490   1.87710     6     9     3     5
 C    -0.40830   2.41390   2.69090     7    17    14     8
 C    -0.86650   3.28420   1.62390     8     9    12     7
 C    -2.20240   3.25770   1.22650     9     8    10     6
 C    -2.44540   3.54230  -0.11980    10     1    36     9
 C     1.41610   3.60270   1.00130    11    12    18    38
 C     0.13140   3.69820   0.67770    12    11    35     8
 C    -0.70550   0.11620   3.51050    13    71    68    14
 C    -1.30820   1.41400   3.16140    14     7     5    13
 C     2.92590   0.85450   3.17010    15    81    99    16
 C     1.55020   1.03400   3.37040    16    15    68    17
 C     0.97190   2.25370   2.89530    17    18     7    16
 C     1.85980   3.02560   2.15430    18   100    11    17
 C    -4.84490   1.15530  -2.00670    19    20    42    21
 C    -3.76260   1.73440  -2.59180    20    22    19    28
 C    -5.31930   1.57010  -0.77520    21    41     2    19
 C    -3.16630   2.77670  -2.01970    22    20    23     1
 C    -1.85140   3.00470  -2.16700    23    22    36    26
 C     0.70710   0.09150  -3.51150    24    52    49    25
 C     1.30460   1.39520  -3.16880    25    30    33    24
 C    -0.97370   2.22870  -2.91950    26    23    30    27
 C    -1.55030   1.00850  -3.38770    27    28    49    26
 C    -2.92130   0.82300  -3.18100    28    43    20    27
 C     0.86330   3.27470  -1.65230    29    37    35    30
 C     0.40430   2.39850  -2.71220    30    26    25    29
 C     4.38010   2.19040  -1.17580    31    90    95    32
 C     3.17010   2.46260  -1.87960    32    37    31    33
 C     2.69170   1.49090  -2.81590    33    34    32    25
 C     3.49420   0.36170  -2.93300    34    51    33    91
 C    -0.13380   3.70060  -0.71200    35    36    12    29
 C    -1.41670   3.60750  -1.02570    36    35    23    10
 C     2.19360   3.25030  -1.24380    37    29    38    32
 C     2.44930   3.54600   0.09630    38    93    11    37
 C    -5.70920  -0.67760  -0.13390    39    56    41    40
 C    -5.13800  -1.07040  -1.34930    40    42    48    39
 C    -5.71130   0.67230   0.16790    41    21    39    66
 C    -4.68680  -0.17670  -2.25200    42    40    19    43
 C    -3.49930  -0.39730  -2.94040    43    28    42    46
 C    -0.86500  -3.28330  -1.62980    44    59    58    45
 C    -0.40750  -2.41600  -2.69900    45    53    50    44
 C    -2.69520  -1.52440  -2.81290    46    43    47    50
 C    -3.18070  -2.47970  -1.86590    47    59    48    46
 C    -4.38610  -2.20140  -1.15980    48    40    57    47
 C    -0.70930  -0.12130  -3.51420    49    27    24    50
 C    -1.30860  -1.42010  -3.16710    50    45    46    49
 C     2.92290  -0.86120  -3.17240    51    34    86    52
 C     1.54980  -1.03930  -3.37520    52    51    24    53
 C     0.97210  -2.25700  -2.89880    53    54    45    52
 C     1.85310  -3.02470  -2.14460    54    87    61    53
 C    -3.55750  -3.14530   0.77260    55    57    60    62
 C    -5.32690  -1.58680   0.80560    56    39    57    64
 C    -4.58060  -2.54050   0.15890    57    55    56    48
 C     0.13120  -3.69990  -0.67980    58    61    73    44
 C    -2.19820  -3.25720  -1.22270    59    44    60    47
 C    -2.44190  -3.54430   0.12190    60    55    74    59
 C     1.41850  -3.60780  -0.99280    61    58    54    75
 C    -3.17190  -2.77940   2.02520    62    63    67    55
 C    -3.76550  -1.73810   2.60410    63    62    64    72
 C    -4.84980  -1.14880   2.03080    64    63    65    56
 C    -4.71070   0.18340   2.27520    65    66    64     4
 C    -5.15910   1.08310   1.38070    66    65     3    41
 C    -1.85000  -3.00220   2.16510    67    62    74    70
 C     0.71060  -0.09590   3.50600    68    16    13    69
 C     1.30980  -1.39810   3.16940    69    78    80    68
 C    -0.97020  -2.22670   2.91760    70    67    78    71
 C    -1.55240  -1.01090   3.39010    71    72    13    70
 C    -2.92230  -0.83100   3.19520    72    63     4    71
 C    -0.12740  -3.70000   0.71200    73    74    58    77
 C    -1.41230  -3.60570   1.02470    74    73    67    60
 C     2.44750  -3.54840  -0.08600    75    82    61    76
 C     2.20330  -3.25070   1.25650    76    77    75    79
 C     0.86860  -3.27580   1.65430    77    76    73    78
 C     0.40780  -2.39860   2.71150    78    70    69    77
 C     3.18550  -2.46620   1.89080    79    76    84    80
 C     2.69920  -1.49380   2.82210    80    81    79    69
 C     3.51090  -0.36740   2.93680    81    15    97    80
 C     3.55510  -3.14910  -0.74860    82    83    75    87
 C     4.56600  -2.53240  -0.12190    83    82    84    88
 C     4.39780  -2.18900   1.19920    84    96    83    79
 C     4.84570  -1.17250  -2.00850    85    86    91    88
 C     3.77140  -1.77160  -2.58840    86    87    85    51
 C     3.17440  -2.80310  -2.00850    87    86    54    82
 C     5.31620  -1.57590  -0.76990    88    92    83    85
 C     5.71780   0.67110  -0.14920    89    94    92    90
 C     5.13820   1.06450  -1.36100    90    91    31    89
 C     4.69230   0.16080  -2.25290    91    90    85    34
 C     5.71540  -0.67130   0.16650    92    88    89    96
 C     3.56100   3.15790   0.75490    93    95    38   100
 C     5.32870   1.58950   0.78650    94    89    95    98
 C     4.57850   2.54050   0.13880    95    93    94    31
 C     5.15930  -1.06600   1.38080    96    97    84    92
 C     4.71150  -0.15180   2.26460    97    96    98    81
 C     4.85190   1.18120   2.02300    98    99    97    94
 C     3.77530   1.77770   2.59460    99   100    98    15
 C     3.17920   2.81180   2.01580   100    99    18    93
