   100
C100-C1-306                                                                     
 C     0.69940   4.29890  -0.93920     1     6     2    55
 C     1.67730   4.24240  -0.00950     2     1     3     9
 C     2.86680   3.71200  -0.46700     3     4     2    54
 C     3.76700   3.13860   0.34820     4     3    18     5
 C     3.38370   2.92760   1.63600     5    19    10     4
 C    -0.60130   4.39670  -0.59990     6     1    75     7
 C    -1.09760   4.28380   0.70450     7     6    14     8
 C    -0.10580   3.95790   1.69000     8     9     7    12
 C     1.26480   4.03240   1.34180     9    10     8     2
 C     2.15900   3.29460   2.09220    10     5     9    28
 C    -1.79680   2.62600   2.75480    11    12    30    13
 C    -0.48640   3.01500   2.72550    12    11    27     8
 C    -2.76840   3.06790   1.86880    13    14   100    11
 C    -2.42850   3.84970   0.79580    14    13    15     7
 C    -3.17340   3.53220  -0.34350    15    76    98    14
 C     4.90700   1.10440   0.30790    16    18    36    17
 C     4.53140   0.89390   1.62010    17    19    25    16
 C     4.46410   2.19550  -0.32710    18    16     4    45
 C     3.73760   1.77040   2.24040    19    17     5    20
 C     2.71110   1.34460   3.04320    20    19    28    23
 C     1.03550  -3.67490   2.05920    21    97    40    26
 C     2.88700  -2.22510   2.41630    22    24    26    39
 C     2.43600  -0.00630   3.30870    23    20    24    33
 C     3.34450  -0.93330   2.69630    24    22    25    23
 C     4.36000  -0.41900   1.84480    25    17    37    24
 C     1.57570  -2.61670   2.80440    26    21    22    34
 C     0.44260   2.08660   3.30650    27    28    12    32
 C     1.74750   2.32330   2.99770    28    27    20    10
 C    -0.79420  -2.00860   3.32890    29    95    96    34
 C    -2.18360   1.40130   3.24680    30    92    11    31
 C    -1.29010   0.39060   3.65970    31    30    32    95
 C     0.08520   0.72710   3.70790    32    31    27    33
 C     1.07830  -0.34710   3.64760    33    23    34    32
 C     0.63150  -1.71210   3.42640    34    26    33    29
 C     4.27890  -2.21160   0.39280    35    37    39    41
 C     4.94990  -0.08980  -0.31000    36    16    37    43
 C     4.75380  -1.02740   0.67430    37    35    36    25
 C     2.77750  -3.73880   0.51050    38    40    39    49
 C     3.44610  -2.84860   1.26520    39    38    35    22
 C     1.61990  -4.18840   0.91440    40    38    72    21
 C     3.95420  -2.54490  -0.89750    41    49    35    42
 C     3.95980  -1.56420  -1.88750    42    46    41    43
 C     4.45050  -0.27810  -1.62570    43    42    36    44
 C     3.84160   0.86200  -2.25980    44    45    43    51
 C     3.92150   2.07850  -1.58300    45    54    18    44
 C     2.88850  -1.68970  -2.75230    46    50    42    48
 C     1.99160  -3.70380  -1.74180    47    48    49    73
 C     1.95740  -2.71490  -2.69740    48    47    66    46
 C     3.01710  -3.53740  -0.82580    49    41    38    47
 C     2.26660  -0.60240  -3.32360    50    46    51    56
 C     2.68450   0.69790  -3.10820    51    50    52    44
 C     1.66150   1.69740  -3.26610    52    53    51    59
 C     1.87640   2.90080  -2.53320    53    55    54    52
 C     2.95910   3.04260  -1.70130    54    45    53     3
 C     0.79020   3.63880  -2.17070    55    64    53     1
 C     0.96280  -0.96070  -3.63140    56    66    58    50
 C    -1.41150  -0.57510  -3.60290    57    61    58    69
 C    -0.07530  -0.05720  -3.79010    58    56    59    57
 C     0.28120   1.32890  -3.62880    59    63    58    52
 C    -3.59940  -0.07390  -2.65420    60    70    79    61
 C    -2.44570   0.37460  -3.32770    61    60    62    57
 C    -2.13110   1.75200  -3.18230    62    63    61    77
 C    -0.79360   2.20980  -3.31130    63    64    62    59
 C    -0.46260   3.35060  -2.57100    64    55    75    63
 C    -0.46070  -2.81550  -2.95950    65    66    71    69
 C     0.77610  -2.27470  -3.24910    66    48    65    56
 C    -2.73720  -3.30570  -1.50040    67    74    68    83
 C    -2.79480  -2.30070  -2.45430    68    70    67    69
 C    -1.60550  -1.96980  -3.17250    69    68    65    57
 C    -3.75260  -1.35020  -2.20420    70    60    68    86
 C    -0.43790  -3.87810  -1.99530    71    74    73    65
 C     0.67020  -4.56100   0.02320    72    87    40    73
 C     0.77400  -4.26450  -1.35030    73    47    72    71
 C    -1.60740  -4.02400  -1.27080    74    67    91    71
 C    -1.31020   3.93190  -1.67200    75    76    64     6
 C    -2.54140   3.51320  -1.55550    76    75    77    15
 C    -2.99250   2.49050  -2.32540    77    80    76    62
 C    -4.88400  -0.02260  -0.79010    78    79    86    82
 C    -4.36580   0.71440  -1.81790    79    80    78    60
 C    -4.04470   1.98360  -1.63450    80    79    77    98
 C    -4.61640  -0.42250   1.48250    81    84    93    82
 C    -4.96020   0.51080   0.50490    82    81    78    99
 C    -3.45860  -3.23070  -0.30140    83    85    90    67
 C    -4.33290  -1.73810   1.23180    84    81    85    88
 C    -4.33720  -2.23130  -0.05800    85    83    86    84
 C    -4.55000  -1.32470  -1.05310    86    85    78    70
 C    -0.48220  -4.49960   0.70480    87    91    72    97
 C    -3.39860  -2.17650   2.16910    88    89    94    84
 C    -2.53940  -3.19590   1.94200    89    88    90    96
 C    -2.66280  -3.77870   0.67310    90    91    83    89
 C    -1.61980  -4.34140   0.06660    91    87    90    74
 C    -3.41870   1.15850   2.70760    92    93   100    30
 C    -3.83300  -0.08930   2.55720    93    92    94    81
 C    -3.03160  -1.12110   2.95310    94    88    93    95
 C    -1.73880  -0.95530   3.49660    95    94    29    31
 C    -1.25930  -3.15670   2.56610    96    97    89    29
 C    -0.29170  -3.90870   1.94390    97    21    96    87
 C    -4.16020   2.58030  -0.39540    98    15    80    99
 C    -4.55190   1.84280   0.70420    99    98   100    82
 C    -3.78600   2.13630   1.83070   100    92    13    99
