   100
C100-C2-401                                                                     
 C     4.11770   1.26950   1.77580     1     2     5    61
 C     4.66390   0.31520   0.95100     2    59     1    11
 C     2.11290   2.94870   2.59140     3     4     6    62
 C     2.81860   3.27670   1.51630     4     3     5    20
 C     3.82050   2.46840   1.11160     5     4     9     1
 C     0.82640   3.32830   2.69100     6     3    76     7
 C     0.18950   4.04190   1.68290     7     8     6    19
 C    -1.15410   3.88050   1.68680     8     7    21    77
 C     3.91810   2.63300  -0.25440     9    10     5    13
 C     4.40420   1.64580  -1.04900    10     9    12    11
 C     4.82880   0.49230  -0.42160    11    27    10     2
 C     3.77800   1.50760  -2.26420    12    25    10    16
 C     2.86600   3.46390  -0.64680    13    20    15     9
 C     0.82610   3.65880  -1.94900    14    15    18    23
 C     2.19580   3.30620  -1.85270    15    16    13    14
 C     2.70310   2.29100  -2.64270    16    36    15    12
 C    -1.33280   2.94490  -2.75890    17    24    18    37
 C     0.03430   2.92420  -2.92280    18    17    35    14
 C     0.87740   4.27700   0.45690    19    20     7    23
 C     2.20630   3.90160   0.45730    20    13     4    19
 C    -1.87980   4.00680   0.54600    21     8    97    22
 C    -1.25590   4.14380  -0.69760    22    24    21    23
 C     0.15190   4.22620  -0.78180    23    22    19    14
 C    -1.97780   3.56160  -1.71270    24    22    17   100
 C     3.62760   0.27660  -2.85010    25    12    26    29
 C     4.11140  -0.86430  -2.25630    26    28    25    27
 C     4.70800  -0.73560  -1.01560    27    11    43    26
 C     3.34450  -1.98360  -2.46170    28    41    26    32
 C     2.45800   0.29710  -3.58400    29    36    31    25
 C     0.29400  -0.68780  -3.99540    30    31    34    39
 C     1.67770  -0.82120  -3.79100    31    29    32    30
 C     2.17510  -1.97120  -3.20600    32    52    31    28
 C    -1.87830  -1.57010  -3.44030    33    34    40    53
 C    -0.53970  -1.81640  -3.61970    34    33    51    30
 C     0.56190   1.78780  -3.63910    35    36    18    39
 C     1.89870   1.54610  -3.47150    36    35    29    16
 C    -2.16090   1.94590  -3.22070    37    17    38    93
 C    -1.65890   0.78910  -3.79200    38    40    37    39
 C    -0.27870   0.65910  -4.00000    39    38    35    30
 C    -2.44240  -0.32430  -3.56590    40    33    38    96
 C     3.20310  -2.95490  -1.50830    41    28    42    45
 C     3.78820  -2.81240  -0.26790    42    44    43    41
 C     4.51360  -1.67230  -0.02850    43    42    27    59
 C     3.07410  -3.31450   0.76990    44    42    48    57
 C     1.97860  -3.56440  -1.68750    45    52    47    41
 C    -0.14190  -4.22770  -0.74840    46    47    50    55
 C     1.26860  -4.14180  -0.65920    47    45    48    46
 C     1.88820  -3.99750   0.58410    48    70    44    47
 C    -2.19530  -3.89390   0.48250    49    56    85    50
 C    -0.86290  -4.27180   0.49580    50    49    69    46
 C    -0.01850  -2.95420  -2.90290    51    52    34    55
 C     1.34530  -2.96710  -2.74840    52    45    51    32
 C    -2.69110  -2.30900  -2.61180    53    33    54    89
 C    -2.18080  -3.32590  -1.82150    54    53    56    55
 C    -0.81400  -3.67400  -1.92610    55    54    51    46
 C    -2.86090  -3.47160  -0.62320    56    49    54    92
 C     3.01850  -2.66470   1.99570    57    63    58    44
 C     3.64670  -1.45790   2.24660    58    57    59    60
 C     4.45080  -1.01430   1.19780    59     2    43    58
 C     2.99260  -0.52040   3.11240    60    61    58    66
 C     3.28620   0.85790   2.86420    61    62     1    60
 C     2.30700   1.75970   3.24540    62     3    68    61
 C     1.83980  -3.01110   2.56940    63    57    65    70
 C    -0.16590  -2.38810   3.50730    64    65    72    71
 C     1.18820  -2.16410   3.44580    65    64    63    66
 C     1.70820  -0.87830   3.71930    66    65    67    60
 C     0.71610   0.12860   4.04690    67    68    73    66
 C     1.09400   1.42330   3.79350    68    67    62    76
 C    -0.18080  -4.04060   1.72450    69    70    71    50
 C     1.16260  -3.88520   1.72140    70    69    48    63
 C    -0.82170  -3.32310   2.72190    71    86    69    64
 C    -1.09060  -1.40340   3.79900    72    73    78    64
 C    -0.71090  -0.10670   4.04340    73    72    67    74
 C    -1.70180   0.89990   3.70540    74    75    73    80
 C    -1.17320   2.18380   3.42650    75    76    77    74
 C     0.17710   2.40610   3.49150    76    75    68     6
 C    -1.83390   3.01700   2.54340    77    83    75     8
 C    -2.30630  -1.74910   3.25870    78    86    72    79
 C    -3.28040  -0.84110   2.86710    79    78    80    88
 C    -2.98560   0.53900   3.09870    80    79    82    74
 C    -4.43590   1.02480   1.18190    81    87    82    98
 C    -3.62910   1.47800   2.22730    82    83    81    80
 C    -3.00720   2.68250   1.96110    83    77    82    97
 C    -3.81600  -2.47370   1.13930    84    85    92    88
 C    -2.81180  -3.27680   1.55060    85    86    84    49
 C    -2.10480  -2.94550   2.62160    86    85    71    78
 C    -4.65300  -0.30730   0.95670    87    81    88    90
 C    -4.11260  -1.26250   1.77930    88    87    84    79
 C    -3.77050  -1.52110  -2.24600    89    96    91    53
 C    -4.81260  -0.49130  -0.41630    90    94    91    87
 C    -4.39090  -1.65820  -1.02440    91    92    89    90
 C    -3.90940  -2.64450  -0.22910    92    91    84    56
 C    -3.33290   1.97630  -2.47970    93   100    95    37
 C    -4.69440   0.72970  -1.02890    94    90    98    95
 C    -4.09320   0.85140  -2.27130    95    96    93    94
 C    -3.62000  -0.29650  -2.84530    96    95    89    40
 C    -3.07200   3.33170   0.73530    97    99    21    83
 C    -4.50490   1.68110  -0.04910    98    99    94    81
 C    -3.78810   2.82260  -0.29990    99    97    98   100
 C    -3.20710   2.95930  -1.53710   100    93    99    24
