   100
C100-C1-56                                                                      
 C    -3.34510  -3.16190   0.24990     1     6     2    65
 C    -3.53970  -2.60190   1.47780     2     1     3    10
 C    -4.36560  -1.47630   1.45330     3     4     2    62
 C    -4.25010  -0.50500   2.37570     4     3     5    14
 C    -3.26040  -0.59400   3.29700     5    15     4    11
 C    -2.21600  -3.87290  -0.02960     6     1     8    67
 C     0.01460  -4.24800   0.30210     7    31     8    66
 C    -1.19500  -4.02320   0.88650     8     7     6     9
 C    -1.24450  -3.37290   2.15290     9     8    10    30
 C    -2.46770  -2.69230   2.43280    10    11     9     2
 C    -2.37440  -1.63130   3.31120    11     5    10    24
 C    -3.90710   1.79350   2.23720    12    35    14    13
 C    -2.93140   1.69440   3.18580    13    15    22    12
 C    -4.56190   0.69340   1.81450    14    12     4    46
 C    -2.60020   0.50880   3.69900    15    13     5    16
 C    -1.31080   0.20680   3.97900    16    15    24    20
 C     2.04190   1.43820   3.28430    17    18    19    42
 C     3.26320   0.86390   2.93560    18    91    29    17
 C     1.02980   0.56410   3.76660    19    20    17    28
 C    -0.26590   1.11620   3.84500    20    16    19    21
 C    -0.60630   2.40200   3.26810    21    22    43    20
 C    -1.95140   2.59860   2.93440    22    13    36    21
 C     0.05220  -1.74380   3.55520    23    24    28    30
 C    -1.16240  -1.15670   3.78950    24    23    16    11
 C     3.49150  -2.72160   1.42960    25    95   100    26
 C     2.46780  -2.62160   2.40750    26    32    25    27
 C     2.44470  -1.40440   3.15630    27    29    28    26
 C     1.21990  -0.90480   3.66520    28    27    23    19
 C     3.47930  -0.50000   2.88780    29    18    96    27
 C     0.02750  -2.94960   2.75990    30    32    23     9
 C     1.17330  -3.98430   0.93790    31     7    98    32
 C     1.26010  -3.32290   2.16780    32    31    26    30
 C    -2.99260   3.32830  -0.76910    33    34    47    39
 C    -3.87430   2.64890   0.01720    34    33    35    45
 C    -3.55570   2.75700   1.37170    35    12    34    36
 C    -2.36130   3.31700   1.83610    36    38    22    35
 C    -0.07170   3.90190   1.36490    37    38    41    43
 C    -1.44870   3.91960   1.03190    38    36    39    37
 C    -1.83930   3.97920  -0.29020    39    58    38    33
 C     2.15410   3.72130   0.48420    40    41    44    85
 C     0.85830   4.08610   0.28300    41    40    57    37
 C     1.69530   2.69120   2.63750    42    44    43    17
 C     0.36280   3.13070   2.53730    43    42    21    37
 C     2.58800   3.12330   1.65290    44    92    40    42
 C    -4.49720   1.45930  -0.48870    45    46    34    49
 C    -4.83900   0.50420   0.48480    46    14    62    45
 C    -2.72280   2.92980  -2.04550    47    33    52    48
 C    -3.24690   1.75840  -2.60470    48    47    55    49
 C    -4.15010   0.97230  -1.80630    49    48    50    45
 C    -4.16440  -0.45430  -2.02770    50    51    61    49
 C    -3.26100  -0.95230  -2.98830    51    56    63    50
 C    -1.48670   3.42950  -2.34680    52    53    58    47
 C    -0.70160   2.81630  -3.22030    53    52    54    59
 C    -1.11520   1.68470  -3.80660    54    53    55    69
 C    -2.36610   1.14850  -3.54520    55    56    54    48
 C    -2.37840  -0.19550  -3.69520    56    55    51    71
 C     0.44730   4.09870  -1.07740    57    58    41    60
 C    -0.91730   4.04630  -1.28140    58    39    52    57
 C     0.64850   2.83830  -3.09690    59    53    60    75
 C     1.29920   3.51190  -2.08000    60    59    86    57
 C    -4.46920  -1.35430  -0.96600    61    62    65    50
 C    -4.78580  -0.85590   0.26050    62    61    46     3
 C    -2.66840  -2.18710  -2.91190    63    64    51    72
 C    -2.94620  -2.98210  -1.88560    64    63    67    65
 C    -3.80880  -2.57970  -0.92760    65    64    61     1
 C     0.24900  -4.15090  -1.07530    66    68    83     7
 C    -1.97300  -3.77510  -1.39620    67    64    68     6
 C    -0.70870  -3.81550  -1.95600    68    66    67    74
 C     0.03390   0.95320  -4.07170    69    70    75    54
 C     0.04280  -0.41470  -4.11620    70    69    71    78
 C    -1.22380  -0.94760  -3.97210    71    72    70    56
 C    -1.40680  -2.18160  -3.46490    72    71    63    74
 C     1.00850  -2.45520  -3.17640    73    82    74    78
 C    -0.34310  -2.96010  -3.03020    74    72    68    73
 C     1.12740   1.66770  -3.65640    75    69    76    59
 C     2.32920   1.09000  -3.32370    76    75    89    77
 C     2.41370  -0.36820  -3.37660    77    80    78    76
 C     1.22090  -1.12700  -3.72930    78    70    73    77
 C     4.32380  -0.14790  -1.87130    79    97    88    80
 C     3.42960  -0.98090  -2.58160    80    79    81    77
 C     3.21700  -2.28190  -2.03340    81    82    99    80
 C     2.00550  -2.96830  -2.29870    82    83    81    73
 C     1.54060  -3.80790  -1.26320    83    66    98    82
 C     4.03570   2.63500   0.05010    84    87    85    92
 C     3.02910   3.32300  -0.52450    85    84    86    40
 C     2.58380   3.06020  -1.81460    86    60    85    89
 C     4.67010   1.63310  -0.58900    87    84    93    88
 C     4.16210   1.22820  -1.80820    88    89    87    79
 C     3.14190   1.88480  -2.46170    89    88    76    86
 C     4.88890   0.46670   1.44620    90    96    91    93
 C     4.15300   1.43370   2.05080    91    92    90    18
 C     3.76770   2.52240   1.38450    92    91    44    84
 C     5.14250   0.56700   0.09150    93    87    97    90
 C     4.68440  -1.69970  -0.14620    94    97    99    95
 C     4.45940  -1.80390   1.21630    95    96    25    94
 C     4.50440  -0.71260   1.98220    96    95    90    29
 C     4.97380  -0.51890  -0.70370    97    94    93    79
 C     2.12120  -3.85410  -0.03400    98   100    83    31
 C     3.85970  -2.54840  -0.79600    99    94   100    81
 C     3.24430  -3.25570   0.19330   100    98    99    25
