   100
C100-C1-300                                                                     
 C    -3.93470  -1.06140   2.01250     1     3    16     2
 C    -2.94570  -1.93920   2.60030     2     4     8     1
 C    -4.44920  -1.42020   0.75270     3    51    31     1
 C    -2.64830  -3.09910   1.89790     4     5    52     2
 C    -1.43690  -3.72450   1.97180     5     4    58     6
 C    -0.37520  -3.28520   2.75250     6     5    13     7
 C    -0.57910  -2.06930   3.48910     7     6     8    11
 C    -1.87160  -1.44560   3.40510     8     9     2     7
 C    -1.90840  -0.09410   3.64290     9     8    15    25
 C     1.81230  -1.71900   3.36230    10    11    90    12
 C     0.58340  -1.24460   3.76520    11    10    24     7
 C     1.96760  -2.89220   2.64910    12    13   100    10
 C     0.90610  -3.65760   2.29870    13    12    14     6
 C     1.05700  -4.27130   1.05070    14    57    98    13
 C    -2.89260   0.73480   3.14260    15    18     9    16
 C    -3.91640   0.32340   2.27830    16    15     1    17
 C    -4.36860   1.28740   1.30680    17    20    30    16
 C    -2.35060   1.98180   3.12630    18    19    15    26
 C    -2.80130   2.87550   2.25120    19    18    20    22
 C    -3.76590   2.54980   1.35350    20    19    32    17
 C     0.25930   4.23270   1.19120    21    97    23    37
 C    -1.91080   3.76360   1.73790    22    19    23    35
 C    -0.59040   3.79300   2.14820    23    21    22    28
 C     0.52150   0.17590   3.89980    24    25    11    29
 C    -0.76180   0.67360   3.87170    25    26    24     9
 C    -1.04160   1.96200   3.52620    26    25    18    28
 C     1.29330   2.41980   3.08030    27    28    96    29
 C    -0.07510   2.85310   3.08300    28    26    23    27
 C     1.61630   1.07640   3.53430    29    91    27    24
 C    -4.75910   0.84490   0.02110    30    31    34    17
 C    -4.79420  -0.50450  -0.21730    31    30     3    40
 C    -3.45910   3.28880   0.24100    32    33    35    20
 C    -3.70940   2.79930  -0.96820    33    32    34    43
 C    -4.37870   1.62380  -1.09020    34    33    38    30
 C    -2.31970   4.00360   0.43830    35    32    22    36
 C    -1.40330   4.22530  -0.57940    36    37    35    42
 C    -0.13570   4.41380  -0.14490    37    71    36    21
 C    -3.95460   1.06130  -2.27420    38    39    34    44
 C    -3.98920  -0.28170  -2.46420    39    38    40    41
 C    -4.46010  -1.06960  -1.44780    40    50    39    31
 C    -2.95490  -0.79480  -3.20370    41    39    48    47
 C    -1.58680   3.61990  -1.85610    42    43    36    45
 C    -2.78760   2.93980  -1.98720    43    44    33    42
 C    -2.92840   1.85660  -2.78890    44    43    46    38
 C    -0.44220   3.18290  -2.63590    45    72    42    73
 C    -1.84870   1.35000  -3.49270    46    47    44    73
 C    -1.92780  -0.01340  -3.69520    47    68    46    41
 C    -2.45550  -2.06130  -2.99610    48    41    59    49
 C    -2.95070  -2.90110  -2.02100    49    48    54    50
 C    -3.96570  -2.32770  -1.24090    50    51    40    49
 C    -4.02960  -2.54870   0.10360    51    52    50     3
 C    -3.17060  -3.38360   0.65800    52    51    55     4
 C    -0.68730  -3.86240  -1.91590    53    56    63    54
 C    -2.04620  -3.80330  -1.45230    54    49    55    53
 C    -2.24850  -4.06180  -0.08220    55    58    52    54
 C     0.27340  -4.30040  -1.01990    56    65    57    53
 C    -0.02020  -4.54430   0.29760    57    58    14    56
 C    -1.24050  -4.35680   0.75810    58    57    55     5
 C    -1.13670  -2.06900  -3.39270    59    48    63    68
 C     2.68830  -0.68690  -3.21110    60    61    69    77
 C     1.46920  -1.23070  -3.51520    61    60    67    62
 C     1.18020  -2.54740  -2.97480    62    63    64    61
 C    -0.19390  -2.95500  -2.90150    63    59    53    62
 C     2.13320  -3.12060  -2.04570    64    65    78    62
 C     1.60020  -3.96070  -1.07810    65    56    64    98
 C     1.87760   1.62820  -3.33290    66    69    70    74
 C     0.44990  -0.28660  -3.86930    67    68    61    70
 C    -0.82000  -0.79540  -3.83390    68    47    67    59
 C     2.90680   0.68190  -3.17250    69    84    60    66
 C     0.60150   1.16200  -3.72250    70    66    73    67
 C     0.93240   4.17320  -0.93190    71    37    86    72
 C     0.85900   3.53990  -2.19260    72    74    71    45
 C    -0.57230   1.97920  -3.45190    73    46    70    45
 C     2.01900   2.83220  -2.57470    74    72    75    66
 C     3.14790   2.90950  -1.72850    75    83    88    74
 C     4.43910  -0.32100  -1.90680    76    79    84    77
 C     3.62560  -1.30490  -2.39010    77    76    78    60
 C     3.35310  -2.48150  -1.70500    78    77    64    81
 C     4.94690  -0.41120  -0.65460    79    80    76    85
 C     4.66070  -1.49560   0.08850    80    79    92    81
 C     3.92050  -2.59160  -0.37700    81    99    80    78
 C     4.57460   1.88280  -0.35700    82    85    87    83
 C     4.11620   1.97440  -1.65270    83    84    75    82
 C     4.01240   0.87010  -2.39290    84    83    76    69
 C     4.96210   0.71030   0.14020    85    82    93    79
 C     1.98990   4.02020  -0.07990    86    88    71    97
 C     3.84810   2.73730   0.40900    87    82    88    95
 C     3.08340   3.44010  -0.46990    88    86    87    75
 C     3.68870  -1.60910   2.21370    89    92   100    90
 C     2.88470  -0.90070   3.07760    90    89    10    91
 C     2.85160   0.50180   3.10810    91    90    29    94
 C     4.50070  -0.99260   1.37400    92    89    93    80
 C     4.59170   0.36800   1.40740    93    85    92    94
 C     3.76230   1.17590   2.23310    94    95    93    91
 C     3.39460   2.44400   1.72720    95    94    96    87
 C     2.18580   3.05290   2.14630    96    97    95    27
 C     1.57160   3.92050   1.21900    97    21    86    96
 C     2.11820  -4.01890   0.21030    98    99    14    65
 C     3.20620  -3.30490   0.58870    99    98    81   100
 C     3.10340  -2.78000   1.87950   100    89    12    99
