   100
C100-C1-179                                                                     
 C     0.87740  -3.32680  -2.57460     1    63     2     4
 C     2.13810  -2.79810  -2.44390     2     1    51     3
 C     2.88790  -3.18390  -1.26770     3     6    14     2
 C     0.29630  -4.15520  -1.64580     4     5     7     1
 C     0.91970  -4.38960  -0.51040     5     4     6     8
 C     2.18260  -3.94090  -0.32230     6     5    16     3
 C    -1.04490  -4.06300  -1.67360     7     4    73    10
 C     0.19410  -4.40260   0.65250     8    20     5     9
 C    -1.18180  -4.22670   0.71300     9     8    22    10
 C    -1.87560  -4.13150  -0.54190    10    12     7     9
 C    -3.62500  -2.91140   0.50430    11    12   100    21
 C    -3.08840  -3.44460  -0.64300    12    11    10    13
 C    -3.36120  -2.68260  -1.78730    13    74    97    12
 C     3.91610  -2.36960  -0.77110    14    15     3    18
 C     4.21750  -1.25920  -1.55880    15    30    14    52
 C     2.32220  -3.75370   1.02580    16    17     6    20
 C     3.25190  -2.89720   1.52180    17    16    19    18
 C     4.14670  -2.24220   0.64920    18    28    17    14
 C     2.81470  -2.22800   2.65740    19    26    25    17
 C     1.06230  -3.96410   1.60410    20     8    24    16
 C    -2.91290  -2.93070   1.69820    21    35    22    11
 C    -1.67640  -3.52940   1.86010    22    21     9    23
 C    -0.77030  -2.94990   2.83100    23    24    22    37
 C     0.60640  -3.22910   2.68440    24    25    20    23
 C     1.54210  -2.35500   3.17070    25    24    39    19
 C     3.23590  -0.98210   2.96050    26    27    19    31
 C     4.16790  -0.40310   2.22770    27    26    47    28
 C     4.66360  -1.01980   1.09380    28    29    27    18
 C     5.02440  -0.01240   0.27410    29    28    30    41
 C     4.80860  -0.13270  -1.05870    30    42    29    15
 C     2.23600  -0.26740   3.55530    31    26    39    32
 C     2.08190   1.11790   3.40170    32    31    45    46
 C    -0.29820   0.66760   3.87330    33    34    38    45
 C    -1.59620   1.05220   3.64580    34    67    33    40
 C    -3.29700  -1.81860   2.40630    35    21    93    36
 C    -2.42110  -1.18540   3.27810    36    40    35    37
 C    -1.13720  -1.70630   3.50370    37    36    38    23
 C    -0.10120  -0.75970   3.88130    38    39    33    37
 C     1.19160  -1.14670   3.72840    39    38    25    31
 C    -2.63150   0.17370   3.39770    40    96    34    36
 C     4.73310   1.18180   0.89760    41    44    47    29
 C     4.40330   0.93600  -1.77920    42    43    30    53
 C     4.23150   2.12500  -1.17120    43    54    42    44
 C     4.35270   2.24020   0.18260    44    41    48    43
 C     0.76650   1.62120   3.54930    45    32    49    33
 C     3.07510   1.76850   2.61040    46    47    50    32
 C     4.12130   0.95730   2.08980    47    41    27    46
 C     3.39670   3.09870   0.63980    48    44    65    50
 C     0.42060   2.86760   2.87770    49    68    45    69
 C     2.70060   2.92270   1.86460    50    48    46    69
 C     2.32710  -1.54220  -3.08940    51    52     2    61
 C     3.42400  -0.84820  -2.63710    52    53    51    15
 C     3.51650   0.51760  -2.74620    53    52    42    57
 C     3.25850   2.93790  -1.59460    54    43    56    65
 C     1.21860   3.21550  -2.60950    55    56    58    66
 C     2.41020   2.59040  -2.64630    56    55    54    57
 C     2.46750   1.29880  -3.22780    57    53    56    60
 C     0.07740   2.66920  -3.15900    58    78    55    59
 C     0.02310   1.38850  -3.70450    59    58    75    60
 C     1.27510   0.65110  -3.71870    60    57    61    59
 C     1.22280  -0.79250  -3.69250    61    62    60    51
 C    -0.06060  -1.39650  -3.74540    62    63    61    76
 C    -0.15000  -2.69260  -3.21860    63    73     1    62
 C     1.57570   4.17960  -0.40390    64    65    66    72
 C     2.79580   3.63240  -0.47160    65    64    48    54
 C     0.83900   4.06090  -1.58380    66    86    55    64
 C    -1.93100   2.26160   3.10560    67    34    68    89
 C    -0.96260   3.15120   2.68130    68    67    70    49
 C     1.39120   3.47330   1.97110    69    50    72    49
 C    -1.39250   3.91570   1.60860    70    71    68    92
 C    -0.49260   4.36580   0.70290    71    70    85    72
 C     0.87190   4.20250   0.82880    72    71    64    69
 C    -1.30700  -3.22310  -2.71670    73    74     7    63
 C    -2.42230  -2.53830  -2.76090    74    73    13    77
 C    -1.27540   0.77840  -3.68900    75    76    59    80
 C    -1.28610  -0.64060  -3.76450    76    77    75    62
 C    -2.44120  -1.28100  -3.28710    77    74    83    76
 C    -0.99760   3.28630  -2.56240    78    86    58    79
 C    -2.26150   2.74580  -2.47580    79    78    80    88
 C    -2.44230   1.46660  -3.08940    80    82    79    75
 C    -4.29540   1.15190  -1.50220    81    87    98    82
 C    -3.54320   0.70280  -2.59450    82    83    81    80
 C    -3.51090  -0.65930  -2.71150    83    77    82    97
 C    -2.41730   3.93870  -0.36380    84    85    92    88
 C    -1.15880   4.38300  -0.50430    85    86    84    71
 C    -0.48740   4.13310  -1.61190    86    85    66    78
 C    -4.01700   2.33030  -0.87550    87    81    88    90
 C    -3.04270   3.16260  -1.34990    88    87    84    79
 C    -3.18720   2.13110   2.52560    89    96    91    67
 C    -4.30610   2.18770   0.47670    90    94    91    87
 C    -3.54670   2.85490   1.41680    91    92    89    90
 C    -2.62380   3.73700   0.98120    92    91    84    70
 C    -4.27130  -1.13980   1.69030    93   100    95    35
 C    -4.77370   0.91760   0.67530    94    90    98    95
 C    -4.45370   0.21360   1.82520    95    96    93    94
 C    -3.62330   0.84650   2.71440    96    89    95    40
 C    -4.09580  -1.53130  -1.78670    97    99    13    83
 C    -4.83540   0.28160  -0.54960    98    99    94    81
 C    -4.70910  -1.07650  -0.65710    99    97    98   100
 C    -4.44030  -1.79320   0.49660   100    93    11    99
