   100
C100-C1-339                                                                     
 C    -3.65970  -1.57200  -2.27260     1     2     6    65
 C    -2.98830  -2.72890  -2.02780     2     1     3     9
 C    -3.23060  -3.25260  -0.74850     3     4    64     2
 C    -2.26930  -3.93670  -0.09350     4     5     3    29
 C    -1.15580  -4.24450  -0.70380     5     4    20    10
 C    -3.10440  -0.61600  -3.08320     6    70     1     7
 C    -1.81540  -0.69520  -3.66580     7     6     8    16
 C    -1.08550  -1.90130  -3.46750     8     7    12     9
 C    -1.72750  -2.92020  -2.65180     9    10     2     8
 C    -0.88090  -3.77490  -1.97800    10    14     9     5
 C     1.01280  -0.59560  -3.84150    11    15    18    12
 C     0.35960  -1.86320  -3.57910    12    13     8    11
 C     1.14570  -2.87770  -2.90510    13    14    24    12
 C     0.45690  -3.76630  -2.09840    14    10    21    13
 C     2.36500  -0.48780  -3.47160    15   100    23    11
 C    -1.13860   0.55450  -3.88210    16    17    18     7
 C    -1.82550   1.71170  -3.48190    17    95    69    16
 C     0.28510   0.64550  -3.93790    18    16    11    97
 C     2.16510  -3.93200  -0.51100    19    21    22    25
 C    -0.01740  -4.40350  -0.00280    20    21     5    27
 C     0.96320  -4.24170  -0.90500    21    19    20    14
 C     2.97340  -3.22860  -1.33010    22    19    45    24
 C     3.07840  -1.49020  -2.84650    23    24    15    43
 C     2.48720  -2.66670  -2.52350    24    23    22    13
 C     2.42130  -3.67040   0.80970    25    40    19    26
 C     1.39640  -3.65010   1.78250    26    25    27    35
 C     0.10820  -4.08530   1.37420    27    28    20    26
 C    -1.07740  -3.63580   2.00790    28    29    27    31
 C    -2.26670  -3.65460   1.24860    29    48     4    28
 C     0.32050  -2.18260   3.44100    30    38    31    35
 C    -1.00030  -2.66350   3.05050    31    28    32    30
 C    -2.17310  -1.82420   3.24250    32    33    47    31
 C    -1.96060  -0.54890   3.75060    33    39    49    32
 C     2.75330  -1.88080   2.81880    34    36    42    35
 C     1.54260  -2.68880   2.82570    35    26    34    30
 C     2.66410  -0.60750   3.37720    36    37    88    34
 C     1.52330  -0.11170   3.89820    37    36    38    56
 C     0.38040  -0.86060   3.98670    38    39    37    30
 C    -0.73950  -0.08170   4.07860    39    33    38    58
 C     3.53010  -2.88230   0.80570    40    25    42    45
 C     4.50570  -0.86700   1.42060    41    87    46    42
 C     3.76150  -1.98780   1.80880    42    40    41    34
 C     4.09410  -0.92780  -2.08900    43    91    23    44
 C     4.52790  -1.47320  -0.89060    44    45    46    43
 C     3.90260  -2.62640  -0.52190    45    44    22    40
 C     4.86960  -0.59880   0.10770    46    44    94    41
 C    -3.34320  -1.92470   2.42870    47    48    51    32
 C    -3.35040  -2.84860   1.42780    48    47    29    64
 C    -2.72320   0.54600   3.43440    49    50    52    33
 C    -3.75770   0.43510   2.62550    50    49    51    53
 C    -4.10370  -0.77670   2.13810    51    50    62    47
 C    -1.96200   1.67450   3.44520    52    58    49    55
 C    -4.05470   1.44500   1.75150    53    50    66    54
 C    -3.27880   2.61340   1.67660    54    53    72    55
 C    -2.16170   2.75110   2.58570    55    52    60    54
 C     1.53470   1.28140   3.72760    56    80    57    37
 C     0.39300   2.02550   3.63490    57    58    56    59
 C    -0.73720   1.31020   3.90690    58    52    57    39
 C     0.33240   3.15410   2.77730    59    57    60    82
 C    -0.98200   3.48770   2.26120    60    61    55    59
 C    -1.02280   4.10450   1.02910    61    85    60    71
 C    -4.72750  -0.53640   0.92920    62    63    51    66
 C    -4.65310  -1.46710  -0.07340    63    64    62    65
 C    -3.98780  -2.62290   0.20450    64    63     3    48
 C    -4.50100  -0.95680  -1.34180    65    68    63     1
 C    -4.68210   0.83920   0.68410    66    67    53    62
 C    -4.56750   1.36490  -0.58310    67    66    68    73
 C    -4.48060   0.38850  -1.58930    68    70    65    67
 C    -3.05940   1.69060  -2.87500    69    70    74    17
 C    -3.68750   0.55760  -2.68570    70    69    68     6
 C    -2.08270   3.95190   0.14730    71    76    61    72
 C    -3.22890   3.19870   0.39060    72    71    54    73
 C    -3.85280   2.56680  -0.74450    73    74    67    72
 C    -3.16760   2.70790  -1.96460    74    77    69    73
 C    -0.21520   4.29740  -1.02650    75    76    85    79
 C    -1.53950   4.08690  -1.10060    76    77    75    71
 C    -2.04470   3.42520  -2.13310    77    76    74    95
 C     1.92320   3.66770  -1.57230    78    79    98    83
 C     0.65370   3.83360  -2.00830    79    78    75    96
 C     2.67880   1.62450   3.09440    80    56    88    81
 C     2.75830   2.70420   2.21480    81    80    90    82
 C     1.54980   3.47260   2.03430    82    84    81    59
 C     2.30460   3.83220  -0.23820    83    89    84    78
 C     1.38080   4.08670   0.76670    84    85    83    82
 C     0.12320   4.36740   0.31300    85    84    61    75
 C     4.47570   1.36150   1.10510    86    87    94    90
 C     4.30810   0.34720   1.99690    87    88    41    86
 C     3.41080   0.47190   2.95990    88    87    80    36
 C     3.42850   3.09460  -0.04870    89    83    90    92
 C     3.72120   2.53910   1.17310    90    89    86    81
 C     4.04370   0.42560  -2.27740    91    43    93   100
 C     3.74850   2.47540  -1.25290    92    93    98    89
 C     4.44310   1.30280  -1.29020    93    92    94    91
 C     4.84270   0.76840  -0.09040    94    93    46    86
 C    -1.20300   2.84620  -3.05920    95    17    96    77
 C     0.15840   2.98660  -3.04260    96    95    79    97
 C     0.95000   1.90630  -3.55110    97    99    96    18
 C     2.75870   2.77950  -2.16340    98    78    92    99
 C     2.30020   1.87850  -3.13120    99   100    98    97
 C     2.98560   0.69630  -3.13910   100    99    15    91
