   100
C100-C1-89                                                                      
 C    -3.73530   1.42740   2.35490     1     2     6    62
 C    -3.78460   0.09490   2.64710     2     1     3    10
 C    -4.44550  -0.66430   1.67500     3     4    59     2
 C    -4.11720  -1.95860   1.46610     4     5     3    14
 C    -3.18090  -2.54350   2.20670     5     4    16    11
 C    -2.68890   2.18920   2.80320     6     1     8    64
 C    -0.46430   2.34670   3.36870     7     8    91    63
 C    -1.62760   1.65030   3.51660     8     7     6     9
 C    -1.55870   0.27160   3.81760     9     8    10    23
 C    -2.70660  -0.48680   3.39530    10    11     2     9
 C    -2.47770  -1.82180   3.15970    11    21    10     5
 C    -3.03590  -2.90580  -1.73480    12    13    25    37
 C    -3.37150  -3.21040  -0.44180    13    12    14    17
 C    -4.23730  -2.27450   0.14010    14     4    24    13
 C    -1.25360  -3.44570   2.42020    15    18    16    21
 C    -2.38610  -3.50520   1.68090    16    15     5    17
 C    -2.39910  -3.87390   0.32270    17    13    16    20
 C    -0.12830  -3.88320   1.92450    18    15    97    19
 C    -0.06340  -4.30410   0.62530    19    38    18    20
 C    -1.13790  -4.23170  -0.24500    20    19    17    36
 C    -1.24740  -2.39210   3.29580    21    11    15    22
 C    -0.07370  -1.72770   3.67230    22    21    23    96
 C    -0.21950  -0.34240   3.95600    23    22    92     9
 C    -4.71400  -1.13290  -0.48690    24    26    59    14
 C    -3.52400  -1.78100  -2.37380    25    27    12    26
 C    -4.37540  -0.83000  -1.79170    26    24    25    43
 C    -2.57120  -1.43680  -3.27680    27    28    25    29
 C    -2.43690  -0.17720  -3.63900    28    27    42    35
 C    -1.48220  -2.25030  -3.20460    29    27    37    33
 C     2.15620  -1.93570  -3.01360    30    31    32    55
 C     3.13210  -2.42230  -2.12960    31    85    41    30
 C     0.87970  -2.56790  -2.97860    32    33    30    40
 C    -0.18780  -1.83780  -3.54290    33    29    32    34
 C    -0.02960  -0.45630  -3.92380    34    35    56    33
 C    -1.18680   0.30730  -3.93120    35    48    28    34
 C    -0.78170  -3.85790  -1.57900    36    37    20    40
 C    -1.77780  -3.20110  -2.25870    37    36    29    12
 C     1.22590  -4.15100   0.26560    38    19    39    88
 C     1.59300  -3.86300  -1.02940    39    41    38    40
 C     0.57860  -3.60030  -1.97590    40    39    36    32
 C     2.82330  -3.30170  -1.12410    41    39    31    90
 C    -3.24610   0.78320  -3.12310    42    45    28    43
 C    -4.23890   0.53210  -2.15730    43    42    26    44
 C    -4.44430   1.56160  -1.19130    44    47    58    43
 C    -2.47820   1.89870  -3.17380    45    46    42    48
 C    -2.68570   2.85710  -2.29530    46    45    47    54
 C    -3.64970   2.72110  -1.33690    47    60    46    44
 C    -1.21330   1.64090  -3.63230    48    35    45    52
 C     2.25920   2.26290  -2.71880    49    50    51    72
 C     3.40610   1.47420  -2.58590    50    81    57    49
 C     1.16120   1.68270  -3.40660    51    52    49    56
 C    -0.08190   2.35280  -3.26560    52    48    51    53
 C    -0.29130   3.40970  -2.30840    53    54    73    52
 C    -1.60940   3.58910  -1.85920    54    66    46    53
 C     2.31120  -0.54780  -3.40830    55    57    56    30
 C     1.19050   0.24060  -3.75240    56    55    34    51
 C     3.43260   0.12600  -2.92040    57    86    50    55
 C    -4.75680   1.19720   0.14540    58    59    62    44
 C    -4.88050  -0.13590   0.45930    59    58    24     3
 C    -3.18170   3.46420  -0.29810    60    61    47    66
 C    -3.47000   3.08940   0.95150    61    60    64    62
 C    -4.22260   1.97920   1.17310    62    61     1    58
 C    -0.32480   3.41420   2.48750    63    71    65     7
 C    -2.53680   3.25030   1.91700    64    61    65     6
 C    -1.31880   3.84550   1.66610    65    63    64    68
 C    -1.93550   3.99340  -0.59320    66    54    68    60
 C     0.40300   4.21320  -0.07920    67    70    68    73
 C    -0.95470   4.23350   0.34380    68    66    67    65
 C     2.62850   3.57540   0.58910    69    70    74    76
 C     1.37700   3.96570   0.91690    70    69    71    67
 C     0.96790   3.51290   2.16030    71    63    78    70
 C     2.05140   3.30630  -1.73220    72    74    73    49
 C     0.75730   3.80880  -1.44710    73    53    72    67
 C     3.01020   3.33090  -0.70740    74    82    69    72
 C     4.35820   2.21180   0.64780    75    76    79    82
 C     3.42260   2.78100   1.41920    76    75    77    69
 C     2.90220   2.14150   2.54360    77    78    76    93
 C     1.67330   2.56810   2.88670    78    77    91    71
 C     4.84030   0.99900   0.98470    79    75    83    98
 C     4.95030   0.46710  -1.31750    80    86    81    83
 C     4.36390   1.65550  -1.61170    81    82    80    50
 C     4.11770   2.55000  -0.65580    82    81    74    75
 C     5.20570   0.13480   0.00030    83    87    79    80
 C     4.50490  -2.04350  -0.42040    84    90    87    85
 C     4.21590  -1.70780  -1.72070    85    86    31    84
 C     4.40420  -0.45640  -2.14180    86    85    80    57
 C     4.93260  -1.11040   0.45600    87    84    83    99
 C     1.94310  -3.65270   1.36340    88    89    97    38
 C     3.11950  -3.01050   1.26490    89    88    90   100
 C     3.62790  -2.97870  -0.02970    90    84    89    41
 C     0.77100   1.78540   3.55500    91    78     7    92
 C     0.98640   0.43320   3.82830    92    91    23    94
 C     3.25700   0.80280   2.84800    93    98    77    94
 C     2.27750  -0.09680   3.43060    94    95    92    93
 C     2.36350  -1.50280   3.09540    95    96    94   100
 C     1.17160  -2.27180   3.21740    96    97    95    22
 C     1.05500  -3.37530   2.34920    97    88    18    96
 C     4.27100   0.29020   2.03600    98    99    79    93
 C     4.33890  -1.03800   1.70940    99    98   100    87
 C     3.39760  -1.94430   2.17210   100    99    89    95
