   100
C100-C1-262                                                                     
 C    -0.61280   0.79440   4.14920     1     7    61     2
 C    -1.92450   0.51010   3.78740     2     1    59    10
 C    -3.23990  -1.30280   2.71860     3    10     4    11
 C    -4.01050  -0.27090   2.17890     4     5     3    60
 C    -4.68440  -0.39050   1.00800     5     6    18     4
 C    -4.57210  -1.51880   0.28190     6     5    19    12
 C     0.36020  -0.13880   4.31970     7     8     1    75
 C     0.06250  -1.41170   4.10770     8     7    13     9
 C    -1.18110  -1.79210   3.72830     9     8    23    10
 C    -2.22560  -0.89210   3.58500    10     9     3     2
 C    -3.10290  -2.51980   1.92870    11    12    24     3
 C    -3.78400  -2.54230   0.71670    12     6    27    11
 C     1.01460  -2.23340   3.62290    13     8    92    15
 C     2.89110  -2.51360   2.34880    14    15    76   100
 C     2.30060  -1.78780   3.33810    15    14    13    74
 C    -4.66990   0.87030  -0.95080    16    31    18    17
 C    -4.50960  -0.25820  -1.69190    17    19    16    39
 C    -4.74400   0.81790   0.39970    18    16     5    47
 C    -4.49230  -1.45230  -1.07280    19    20    17     6
 C    -3.67780  -2.41870  -1.51630    20    19    21    27
 C    -2.85320  -2.21400  -2.61970    21    22    20    38
 C    -1.76020  -3.00020  -2.61010    22    21    41    28
 C    -1.01390  -2.93290   2.96670    23    24    92     9
 C    -1.91260  -3.31320   1.99540    24    23    11    25
 C    -1.36000  -4.01150   0.84730    25    26    24    94
 C    -2.09700  -3.86340  -0.35980    26    27    28    25
 C    -3.26920  -3.16350  -0.39930    27    26    12    20
 C    -1.40320  -3.84690  -1.54900    28    97    26    22
 C    -2.35830   3.46360  -1.40440    29    48    30    34
 C    -3.41130   2.87860  -0.78300    30    29    31    46
 C    -3.96450   1.85620  -1.53580    31    16    30    32
 C    -3.34140   1.32380  -2.67690    32    39    33    31
 C    -2.16810   1.80910  -3.19650    33    32    34    44
 C    -1.76890   2.97150  -2.57540    34    36    33    29
 C     0.49530   2.68070  -3.25380    35    37    36    45
 C    -0.49710   3.39940  -2.60940    36    34    35    52
 C     1.75190   2.96050  -2.74680    37    91    35    53
 C    -2.75900  -0.93610  -3.25420    38    39    21    43
 C    -3.65150  -0.00410  -2.73440    39    32    17    38
 C     1.29290   0.44680  -3.90330    40    89    45    90
 C    -0.62810  -2.63430  -3.27170    41    22    86    42
 C    -0.40980  -1.37200  -3.87380    42    41    43    89
 C    -1.50590  -0.46500  -3.82140    43    42    44    38
 C    -1.18770   0.94940  -3.80500    44    33    43    45
 C     0.19780   1.39890  -3.83580    45    35    40    44
 C    -3.43640   2.83160   0.65160    46    47    50    30
 C    -4.10520   1.73590   1.18150    47    18    60    46
 C    -1.41350   4.13610  -0.70700    48    29    52    49
 C    -1.37670   4.13050   0.68730    49    51    48    50
 C    -2.35740   3.39020   1.40810    50    49    46    58
 C    -0.09000   4.25960   1.18080    51    56    55    49
 C    -0.28080   4.18890  -1.49010    52    54    48    36
 C     1.98000   3.76750  -1.63020    53    54    69    37
 C     0.95120   4.34730  -0.96510    54    52    53    55
 C     1.04030   4.38940   0.39610    55    54    68    51
 C     0.29370   3.66520   2.33960    56    51    57    62
 C    -0.59530   2.91580   3.07240    57    61    56    58
 C    -1.94840   2.74090   2.65110    58    57    59    50
 C    -2.61340   1.52530   3.06760    59    60     2    58
 C    -3.67860   1.08260   2.32390    60    59    47     4
 C     0.03560   1.94210   3.80490    61     1    57    67
 C     1.67050   3.40080   2.25760    62    68    66    56
 C     4.43830   1.27520   0.17510    63    71    85    64
 C     3.84690   2.17840   1.05860    64    63    70    65
 C     3.38560   1.65930   2.32190    65    66    64    73
 C     2.27410   2.34120   2.91190    66    67    62    65
 C     1.41060   1.66360   3.73130    67    75    66    61
 C     2.12410   3.85650   1.06100    68    62    70    55
 C     3.09120   3.30580  -0.97340    69    81    53    70
 C     3.19650   3.27880   0.42360    70    68    69    64
 C     4.61140  -0.05100   0.45500    71    63    72    77
 C     4.19980  -0.59710   1.65940    72    71    76    73
 C     3.56490   0.23760   2.62710    73    72    74    65
 C     2.62990  -0.41130   3.50460    74    75    15    73
 C     1.60150   0.35550   4.03220    75    67     7    74
 C     3.84130  -1.94640   1.54750    76    14    80    72
 C     4.59350  -0.75350  -0.75210    77    79    84    71
 C     3.48600  -2.40560  -1.92870    78    79    98    82
 C     4.19270  -2.04970  -0.81340    79    77    80    78
 C     3.82870  -2.65250   0.35590    80    79    99    76
 C     3.59880   2.32560  -1.74890    81    85    69    91
 C     3.12440  -1.47730  -2.90830    82    83    88    78
 C     3.50460  -0.17280  -2.86400    83    82    84    90
 C     4.31970   0.14140  -1.76110    84    85    77    83
 C     4.31110   1.35900  -1.19800    85    81    84    63
 C     0.35940  -3.38960  -2.71690    86    87    41    97
 C     1.60830  -3.01150  -2.82950    87    86    98    88
 C     1.92370  -1.83490  -3.44560    88    82    87    89
 C     0.95200  -0.93920  -3.93390    89    88    40    42
 C     2.60900   0.80350  -3.38580    90    91    83    40
 C     2.76080   2.06130  -2.82120    91    37    81    90
 C     0.33450  -3.20780   2.90420    92    93    23    13
 C     0.90730  -3.86610   1.84860    93    92   100    94
 C     0.07680  -4.27190   0.76650    94    93    96    25
 C     2.09640  -3.98950  -0.68100    95    99    98    96
 C     0.72610  -4.33480  -0.51910    96    97    95    94
 C    -0.08110  -4.07810  -1.61570    97    28    86    96
 C     2.49660  -3.35130  -1.86150    98    87    78    95
 C     2.81950  -3.59780   0.41890    99   100    95    80
 C     2.23860  -3.52720   1.63920   100    99    93    14
