   100
C100-Cs-244                                                                     
 C    -0.67140  -3.78930  -2.19810     1     7    62     2
 C    -1.44820  -4.06340  -1.08020     2     1    60    10
 C    -1.42380  -3.93690   1.36680     3     4    14    10
 C    -2.72620  -3.39620   1.24330     4    61     5     3
 C    -3.25420  -2.45190   2.09930     5     6    21     4
 C    -2.52590  -2.01030   3.10300     6     5    15    22
 C     0.68130  -3.78510  -2.19630     7     1    63     8
 C     1.45420  -4.05270  -1.07400     8     7    17     9
 C     0.73280  -4.29430   0.16150     9    12     8    10
 C    -0.72740  -4.29820   0.15830    10     3     2     9
 C     2.72990  -3.39340   1.25400    11    16    93    12
 C     1.42640  -3.93470   1.37100    12    11    13     9
 C     0.70240  -3.52660   2.52580    13    14    35    12
 C    -0.70250  -3.52600   2.52110    14    13    15     3
 C    -1.32050  -2.55040   3.34120    15     6    27    14
 C     3.36300  -3.16410   0.06290    16    17    11   100
 C     2.75090  -3.46500  -1.11850    17    16    18     8
 C     3.08730  -2.58670  -2.16140    18    65    97    17
 C    -2.54870   3.46590   1.32850    19    20    34    39
 C    -3.28170   2.39810   1.73420    20    19    37    25
 C    -4.11170  -1.60940   1.48270    21     5    50    24
 C    -2.56550  -0.67570   3.47890    22    28    23     6
 C    -3.34680   0.26350   2.84460    23    22    24    25
 C    -4.19750  -0.25230   1.82190    24    36    21    23
 C    -2.81610   1.59840   2.81630    25    20    23    32
 C     0.64360  -1.57650   3.99620    26    27    35    29
 C    -0.65390  -1.56720   3.99670    27    26    15    28
 C    -1.34860  -0.39000   4.02290    28    22    27    31
 C     1.33080  -0.39100   4.02480    29    86    26    30
 C     0.71180   0.86430   3.98560    30    29    47    31
 C    -0.73180   0.86480   3.98440    31    28    32    30
 C    -1.49080   1.90980   3.39190    32    31    33    25
 C    -0.73730   3.02140   2.91060    33    34    32    45
 C    -1.35360   3.81060   1.92230    34    44    19    33
 C     1.32660  -2.55680   3.35040    35    94    26    13
 C    -4.49700   0.56350   0.76400    36    37    24    48
 C    -4.05970   1.84370   0.72490    37    36    20    41
 C    -1.34420   4.54270  -0.16240    38    39    42    44
 C    -2.49740   3.88590  -0.01100    39    38    40    19
 C    -3.06970   3.16180  -1.04580    40    41    39    54
 C    -3.91340   2.19200  -0.62070    41    40    52    37
 C    -0.68140   4.44510  -1.33800    42    83    38    53
 C     0.66020   4.54550   1.02040    43    44    46    82
 C    -0.66480   4.54790   1.01320    44    43    38    34
 C     0.72000   3.02320   2.91550    45    46    47    33
 C     1.34810   3.81440   1.93540    46    43    91    45
 C     1.47600   1.90860   3.39780    47    30    45    88
 C    -4.62520   0.09930  -0.53290    48    49    36    52
 C    -4.47900  -1.22170  -0.83130    49    51    48    50
 C    -4.21850  -2.08630   0.19780    50    49    21    61
 C    -3.87470  -1.50080  -2.01740    51    49    59    57
 C    -4.18130   1.10200  -1.37870    52    41    48    56
 C    -1.12970   3.61860  -2.32880    53    42    54    66
 C    -2.33670   2.95310  -2.26340    54    53    55    40
 C    -2.45800   1.73990  -3.00130    55    54    56    68
 C    -3.48420   0.84570  -2.56190    56    57    52    55
 C    -3.38140  -0.48900  -2.84870    57    70    56    51
 C    -2.21070  -2.29010  -3.13360    58    62    59    70
 C    -3.08670  -2.61200  -2.16620    59    58    51    60
 C    -2.74950  -3.48680  -1.12090    60    61    59     2
 C    -3.36350  -3.17970   0.05340    61    60     4    50
 C    -1.05190  -2.89150  -3.18450    62    58    64     1
 C     1.06940  -2.89030  -3.18350    63    65    64     7
 C     0.00690  -2.24860  -3.71280    64    62    63    73
 C     2.21740  -2.27210  -3.13630    65    63    18    74
 C    -0.00360   3.09550  -2.95120    66    67    75    53
 C    -0.00620   1.88130  -3.61950    67    66    68    71
 C    -1.28020   1.19510  -3.70620    68    69    67    55
 C    -1.23210  -0.20430  -3.97070    69    70    73    68
 C    -2.31880  -0.97930  -3.53750    70    57    58    69
 C     1.27550   1.20720  -3.69480    71    72    67    77
 C     1.24230  -0.19410  -3.96170    72    74    73    71
 C     0.00780  -0.88130  -4.09830    73    69    72    64
 C     2.33200  -0.96170  -3.52590    74    80    65    72
 C     1.10940   3.62470  -2.31320    75    83    76    66
 C     2.32050   2.96240  -2.24000    76    75    77    85
 C     2.45000   1.75090  -2.98250    77    76    79    71
 C     4.17010   1.11560  -1.35850    78    84    98    79
 C     3.47890   0.86040  -2.54710    79    80    78    77
 C     3.39420  -0.47470  -2.83520    80    74    79    97
 C     2.48340   3.89750   0.00970    81    82    85    91
 C     1.33420   4.55830  -0.16310    82    81    83    43
 C     0.66430   4.46050  -1.32850    83    42    82    75
 C     3.90350   2.20250  -0.59270    84    85    78    89
 C     3.05780   3.16740  -1.02250    85    84    81    76
 C     2.55060  -0.68130   3.48860    86    29    87    94
 C     3.32960   0.26600   2.85780    87    86    96    88
 C     2.80550   1.60460   2.82470    88    90    87    47
 C     4.05840   1.85550   0.75290    89    95    90    84
 C     3.27400   2.41640   1.75410    90    91    89    88
 C     2.54420   3.48280   1.34720    91    90    46    81
 C     4.09730  -1.61130   1.49920    92    93   100    96
 C     3.25500  -2.46110   2.12460    93    94    92    11
 C     2.53460  -2.01760   3.12620    94    93    35    86
 C     4.49260   0.57370   0.78770    95    89    96    98
 C     4.18520  -0.25050   1.83670    96    95    92    87
 C     3.88970  -1.48280  -2.00580    97    99    18    80
 C     4.61850   0.11230  -0.51340    98    99    95    78
 C     4.48250  -1.20950  -0.81650    99    97    98   100
 C     4.22240  -2.07100   0.21050   100    99    92    16
