   100
C100-C2-433                                                                     
 C     2.78110  -3.67900   0.67430     1     5    64    26
 C     3.87280  -1.07670  -2.15380     2     3    68     6
 C     3.93320  -2.13010  -1.28740     3     2     4    62
 C     2.99860  -3.11580  -1.57020     4     5     3     8
 C     2.45550  -3.89690  -0.59760     5     1    18     4
 C     2.87920  -0.96250  -3.14590     6    14     7     2
 C     1.88260  -1.89670  -3.34580     7     8     6    10
 C     2.01960  -3.00930  -2.54990     8    19     7     4
 C     0.42330  -0.07090  -4.02380     9    11    12    10
 C     0.59060  -1.48440  -3.78490    10     7     9    20
 C    -0.85560   0.42890  -3.93860    11     9    23    98
 C     1.45780   0.88340  -3.80710    12    14     9    13
 C     1.16600   2.23850  -3.40260    13    15    97    12
 C     2.68020   0.36010  -3.38740    14     6    71    12
 C     2.12400   2.88370  -2.62680    15    94    70    13
 C    -1.03210  -4.32580  -0.43530    16    27    17    22
 C     0.23160  -4.48990   0.03090    17    16    18    25
 C     1.20710  -4.27840  -0.92880    18     5    17    19
 C     0.93190  -3.74000  -2.17720    19     8    21    18
 C    -0.56970  -2.29070  -3.42170    20    21    24    10
 C    -0.33590  -3.43170  -2.59370    21    19    22    20
 C    -1.32330  -3.83930  -1.72250    22    39    21    16
 C    -1.95780  -0.34970  -3.64870    23    40    11    24
 C    -1.88260  -1.70390  -3.35300    24    23    38    20
 C     0.49800  -4.17870   1.39400    25    26    17    29
 C     1.80200  -3.77690   1.65080    26    45     1    25
 C    -2.06330  -3.98880   0.37870    27    16    32    28
 C    -1.87390  -3.62690   1.72570    28    27    35    29
 C    -0.53630  -3.65850   2.23560    29    25    28    30
 C    -0.16210  -2.66490   3.22410    30    31    44    29
 C    -1.12820  -1.73560   3.58010    31    36    30    50
 C    -3.03420  -3.44580  -0.41550    32    33    27    39
 C    -3.93470  -2.61170   0.06660    33    32    37    34
 C    -3.85830  -2.24450   1.38350    34    33    56    35
 C    -2.82750  -2.69470   2.19940    35    36    34    28
 C    -2.40990  -1.75320   3.10960    36    31    35    58
 C    -4.43310  -1.60370  -0.68950    37    33    87    42
 C    -2.92020  -2.19730  -2.49540    38    39    24    42
 C    -2.55350  -3.27170  -1.69090    39    22    32    38
 C    -2.93660   0.48450  -3.15490    40    23    41    91
 C    -3.94650   0.03510  -2.33150    41    40    43    42
 C    -3.94040  -1.32730  -1.98570    42    41    37    38
 C    -4.40290   0.99740  -1.43500    43    93    86    41
 C     1.17150  -2.22220   3.39500    44    45    30    47
 C     2.12810  -2.86000   2.61070    45    26    46    44
 C     3.29550  -2.26700   2.20690    46    49    64    45
 C     1.47600  -0.87150   3.79630    47    48    51    44
 C     2.69420  -0.34710   3.37120    48    54    49    47
 C     3.57350  -1.03000   2.57850    49    46    48    65
 C    -0.83400  -0.42290   3.94820    50    51    59    31
 C     0.44450   0.08150   4.02520    51    50    47    52
 C     0.61840   1.49280   3.78270    52    53    51    61
 C     1.91110   1.90400   3.33700    53    55    54    52
 C     2.90960   0.97440   3.13270    54    48    53    72
 C     2.04950   3.01770   2.53760    55    85    53    73
 C    -4.40050  -0.97810   1.46140    56    87    34    57
 C    -3.93630  -0.01710   2.35670    57    58    56    80
 C    -2.92510  -0.46620   3.17600    58    59    57    36
 C    -1.93770   0.35760   3.66350    59    58    50    60
 C    -1.85410   1.71050   3.36520    60    59    81    61
 C    -0.54230   2.30120   3.42350    61    84    60    52
 C     4.32310  -1.87190   0.04940    62    64     3    63
 C     4.63830  -0.53460   0.45780    63    65    67    62
 C     3.69080  -2.71020   0.98690    64    46     1    62
 C     4.26380  -0.17600   1.76330    65    72    49    63
 C     4.31670   1.87730  -0.06320    66    69    74    67
 C     4.63060   0.53700  -0.47960    67    68    63    66
 C     4.24450   0.19020  -1.78640    68    71     2    67
 C     3.68090   2.70840  -1.01270    69    70    77    66
 C     3.29380   2.27560  -2.23980    70    71    69    15
 C     3.56620   1.04340  -2.60990    71    70    14    68
 C     3.90020   1.08590   2.14150    72    74    65    54
 C     3.02150   3.13520   1.55070    73    76    74    55
 C     3.94690   2.14260   1.27910    74    72    73    66
 C     1.22530   4.28440   0.91780    75    76    79    85
 C     2.47820   3.90920   0.57820    76    77    75    73
 C     2.78190   3.68960  -0.70000    77    76    69    94
 C    -1.01680   4.33280   0.44430    78    79    99    83
 C     0.24180   4.49600  -0.03830    79    78    75    95
 C    -3.92840   1.34130   1.99940    80    57    89    81
 C    -2.89630   2.19990   2.50630    81    82    80    60
 C    -2.52290   3.27250   1.69750    82    83    90    81
 C    -1.29690   3.84800   1.73220    83    82    84    78
 C    -0.30670   3.43970   2.59830    84    85    83    61
 C     0.95600   3.74700   2.17080    85    55    84    75
 C    -4.80560   0.64430  -0.16660    86    87    89    43
 C    -4.80730  -0.63050   0.19320    87    86    37    56
 C    -3.92690   2.62550  -0.05070    88    90    89    93
 C    -4.42350   1.62490   0.71040    89    88    86    80
 C    -3.01050   3.45280   0.42350    90    88    99    82
 C    -2.41130   1.77020  -3.09940    91    98    92    40
 C    -2.83740   2.71100  -2.18770    92    91    93   100
 C    -3.86350   2.26150  -1.36910    93    88    43    92
 C     1.80400   3.80480  -1.66900    94    15    77    95
 C     0.49980   4.19510  -1.40710    95    94    79    96
 C    -0.54330   3.67290  -2.23960    96   100    95    97
 C    -0.16910   2.67670  -3.22950    97    98    13    96
 C    -1.13470   1.74720  -3.58130    98    91    97    11
 C    -2.04920   4.00450  -0.37630    99    78    90   100
 C    -1.87730   3.63970  -1.72040   100    99    92    96
