   100
C100-C1-403                                                                     
 C     1.64540   3.96180  -1.23580     1     6     2    60
 C     2.33020   3.91670  -0.05640     2     1     3     9
 C     3.48930   3.16280  -0.12270     3     4     2    61
 C     3.97190   2.48420   0.95660     4     5     3    32
 C     3.25670   2.50320   2.08370     5     4    18    10
 C     0.32060   4.21520  -1.26680     6     1    73     7
 C    -0.48720   4.39580  -0.13770     7     6    14     8
 C     0.15090   4.17410   1.13300     8     9     7    12
 C     1.56350   3.97390   1.14300     9    10     2     8
 C     2.08510   3.21410   2.18380    10     5    26     9
 C    -1.99660   3.37750   1.91070    11    27    13    12
 C    -0.65060   3.56570   2.17890    12    11    25     8
 C    -2.60040   3.67760   0.70850    13    14    11   100
 C    -1.85220   4.12270  -0.34780    14    13    15     7
 C    -2.29080   3.60690  -1.57400    15    74    97    14
 C     3.20280  -0.90050   2.94820    16    33    17    22
 C     3.87150   0.22320   2.51560    17    16    18    31
 C     3.19690   1.39180   2.85610    18     5    19    17
 C     1.97040   1.43330   3.49290    19    21    26    18
 C    -0.09640   0.30140   3.99340    20    21    24    29
 C     1.30560   0.29950   3.89240    21    19    22    20
 C     1.98110  -0.87060   3.60860    22    44    21    16
 C    -2.09710  -0.94550   3.52100    23    24    45    30
 C    -0.76050  -0.97750   3.83770    24    23    43    20
 C    -0.07490   2.66520   3.14150    25    26    12    29
 C     1.29110   2.56340   3.09950    26    25    10    19
 C    -2.75000   2.38640   2.50150    27    11    93    28
 C    -2.17160   1.44980   3.34830    28    30    27    29
 C    -0.81100   1.53750   3.67520    29    28    25    20
 C    -2.80080   0.21850   3.31720    30    23    96    28
 C     4.62380   0.15760   1.31390    31    32    17    35
 C     4.63020   1.34860   0.56460    32    53     4    31
 C     3.28390  -2.08880   2.27940    33    16    34    37
 C     4.00810  -2.20530   1.10960    34    33    36    35
 C     4.66480  -1.06490   0.58770    35    51    34    31
 C     3.44780  -3.13470   0.24800    36    49    34    40
 C     2.11440  -2.80170   2.54330    37    44    39    33
 C     0.16120  -3.94340   1.69820    38    39    42    47
 C     1.56340  -3.72370   1.68280    39    37    40    38
 C     2.30210  -3.87070   0.51780    40    58    39    36
 C    -1.77500  -4.13880   0.25820    41    48    85    42
 C    -0.42480  -4.37810   0.45250    42    41    57    38
 C    -0.04980  -2.16920   3.44580    43    44    24    47
 C     1.31800  -2.04540   3.36820    44    22    37    43
 C    -2.74080  -1.94860   2.83590    45    23    46    89
 C    -2.05250  -3.04960   2.35360    46    45    48    47
 C    -0.67410  -3.19810   2.63520    47    46    43    38
 C    -2.58650  -3.54620   1.17560    48    41    46    92
 C     3.46030  -2.94710  -1.10370    49    50    54    36
 C     4.00050  -1.85090  -1.62160    50    49    51    64
 C     4.63920  -0.95020  -0.82140    51    52    50    35
 C     4.53730   0.23300  -1.48530    52    53    51    65
 C     4.57160   1.37230  -0.80320    53    52    61    32
 C     2.37470  -3.50030  -1.66510    54    49    58    55
 C     1.74600  -2.89870  -2.76070    55    56    54    63
 C     0.43070  -3.19250  -2.84350    56    55    66    59
 C     0.35700  -4.40850  -0.73490    57    58    59    42
 C     1.68150  -4.15920  -0.66700    58    57    40    54
 C    -0.23250  -3.98600  -1.92560    59    86    56    57
 C     1.97060   3.16570  -2.34190    60    62    72     1
 C     3.84990   2.43200  -1.24700    61    53     3    62
 C     3.03560   2.33440  -2.37330    62    60    61    70
 C     2.19770  -1.65880  -3.26360    63    64    55    68
 C     3.38340  -1.20860  -2.68580    64    65    50    63
 C     3.71960   0.10020  -2.59970    65    64    70    52
 C    -0.47910  -2.31280  -3.40010    66    78    56    67
 C    -0.13820  -1.03550  -3.84650    67    66    75    68
 C     1.26640  -0.67530  -3.78320    68    69    63    67
 C     1.62700   0.72230  -3.68740    69    71    68    70
 C     2.88860   1.10520  -3.07370    70    65    62    69
 C     0.56170   1.66760  -3.67820    71    72    69    76
 C     0.82070   2.88510  -3.00880    72    73    60    71
 C    -0.14670   3.63110  -2.41640    73    74    72     6
 C    -1.40190   3.30240  -2.54510    74    73    15    77
 C    -1.22040  -0.08710  -3.81110    75    76    67    80
 C    -0.82130   1.28140  -3.75590    76    77    75    71
 C    -1.76360   2.17160  -3.21790    77    83    74    76
 C    -1.71770  -2.65210  -2.90120    78    86    66    79
 C    -2.78590  -1.78410  -2.80770    79    78    80    88
 C    -2.56070  -0.45970  -3.30180    80    82    79    75
 C    -4.33500   0.23420  -1.73950    81    87    98    82
 C    -3.42410   0.54100  -2.75760    82    83    81    80
 C    -2.98960   1.83690  -2.72760    83    77    82    97
 C    -3.41520  -3.06830  -0.83330    84    85    92    88
 C    -2.32210  -3.83970  -0.97120    85    86    84    41
 C    -1.52780  -3.68640  -2.01800    86    85    59    78
 C    -4.45030  -1.02510  -1.22910    87    81    88    90
 C    -3.72200  -2.05670  -1.75590    88    87    84    79
 C    -3.85330  -1.40070   2.21760    89    96    91    45
 C    -4.77890  -0.94020   0.12140    90    94    91    87
 C    -4.32220  -1.88180   1.01790    91    92    89    90
 C    -3.66010  -2.95100   0.51870    92    91    84    48
 C    -3.83700   2.09900   1.68800    93    95   100    27
 C    -4.85680   0.39510   0.42950    94    90    98    95
 C    -4.42800   0.86140   1.66650    95    96    93    94
 C    -3.89690  -0.06530   2.52310    96    95    89    30
 C    -3.33740   2.74310  -1.72120    97    99    15    83
 C    -4.65320   1.13110  -0.71570    98    99    94    81
 C    -4.12030   2.38810  -0.66860    99    97    98   100
 C    -3.71670   2.87340   0.56100   100    93    99    13
