   100
C100-C1-308                                                                     
 C     3.93570  -2.71960  -0.23670     1     3     2    15
 C     4.59160  -1.53970  -0.35830     2     4     1     6
 C     3.45220  -3.09870   0.96890     3    14     1    57
 C     4.80080  -0.77360   0.72670     4     2     5    60
 C     4.74910   0.56710   0.61430     5     4    61     8
 C     4.23980  -0.96920  -1.55420     6     2    22     7
 C     4.17750   0.40980  -1.74300     7     6    24     8
 C     4.49660   1.23740  -0.59690     8    10     5     7
 C     3.12380   2.95700  -1.49000     9    10   100    23
 C     3.90130   2.49860  -0.46610    10     9     8    11
 C     3.46960   2.93810   0.79580    11    62    98    10
 C     1.56810  -4.18120  -0.05440    12    14    30    13
 C     2.05180  -3.72080  -1.34730    13    15    17    12
 C     2.27810  -3.75740   1.05630    14     3    12    43
 C     3.20570  -2.95130  -1.35850    15     1    13    22
 C     1.34040  -2.32820  -3.25670    16    19    26    17
 C     1.14560  -3.46360  -2.38290    17    18    13    16
 C    -0.15290  -3.88240  -2.15670    18    21    29    17
 C     0.18360  -1.75600  -3.76690    19    20    28    16
 C    -1.06230  -2.23860  -3.51800    20    21    19    41
 C    -1.23940  -3.29750  -2.74720    21    20    40    18
 C     3.39840  -1.85600  -2.20290    22    26     6    15
 C     2.80170   2.15790  -2.58360    23    93    24     9
 C     3.24600   0.85410  -2.72670    24    23     7    25
 C     2.35500  -0.04630  -3.42630    25    26    24    27
 C     2.44960  -1.45600  -3.12400    26    22    16    25
 C     1.08100   0.46390  -3.89590    27    28    94    25
 C     0.04070  -0.42570  -4.04540    28    19    27    85
 C    -0.60540  -4.37670  -0.95580    29    32    18    30
 C     0.20940  -4.43070   0.16810    30    29    12    31
 C    -0.41530  -4.09620   1.42810    31    34    42    30
 C    -1.94660  -4.10630  -0.90010    32    33    40    29
 C    -2.54100  -3.88720   0.26180    33    32    36    34
 C    -1.77770  -3.85690   1.40140    34    44    33    31
 C    -4.56490  -1.06000  -0.41620    35    37    49    89
 C    -3.59610  -3.04040   0.35330    36    33    48    37
 C    -4.04260  -2.28690  -0.74530    37    35    36    38
 C    -3.35830  -2.41760  -1.96620    38    40    37    39
 C    -3.15740  -1.25280  -2.78860    39    41    88    38
 C    -2.35610  -3.39660  -1.99710    40    21    32    38
 C    -1.98820  -1.23310  -3.54710    41    20    85    39
 C     0.31670  -3.40900   2.44250    42    43    31    46
 C     1.65950  -3.32580   2.23130    43    42    56    14
 C    -2.40680  -2.99860   2.24950    44    34    45    48
 C    -1.68150  -2.24560   3.16730    45    47    44    46
 C    -0.28400  -2.39580   3.28540    46    45    42    54
 C    -2.26360  -1.04000   3.46310    47    45    52    51
 C    -3.57040  -2.53760   1.63550    48    50    36    44
 C    -4.65500  -0.61380   0.89320    49    72    50    35
 C    -4.10380  -1.33060   1.93900    50    48    51    49
 C    -3.44810  -0.60140   2.89810    51    74    50    47
 C    -1.50460   0.05740   3.80080    52    66    47    53
 C    -0.12490   0.03360   3.92850    53    52    54    63
 C     0.52430  -1.24890   3.73640    54    55    53    46
 C     1.91570  -1.24190   3.47760    55    56    54    58
 C     2.45150  -2.34190   2.78360    56    57    43    55
 C     3.59040  -2.27890   2.03830    57    60     3    56
 C     2.63680  -0.00950   3.36580    58    59    64    55
 C     3.82110  -0.03830   2.58100    59    60    61    58
 C     4.26420  -1.13900   1.93470    60    57    59     4
 C     4.23360   1.01470   1.81590    61    62    59     5
 C     3.57590   2.14630   1.88570    62    61    11    65
 C     0.55420   1.29840   3.71250    63    64    53    69
 C     1.94080   1.23250   3.43550    64    65    63    58
 C     2.48010   2.29500   2.69240    65    71    62    64
 C    -2.23540   1.16780   3.45180    66    68    52    74
 C    -2.33100   3.11630   2.21940    67    77    75    68
 C    -1.62100   2.35810   3.14850    68    66    67    69
 C    -0.21750   2.47350   3.25840    69    68    70    63
 C     0.40350   3.47670   2.41470    70    71    78    69
 C     1.74540   3.32300   2.16730    71    65    70    98
 C    -4.62350   0.75290   0.87880    72    49    73    82
 C    -4.05760   1.48130   1.90770    73    75    74    72
 C    -3.43140   0.75640   2.88910    74    51    73    66
 C    -3.48910   2.66360   1.59070    75    73    84    67
 C    -2.43030   3.97370   0.21320    76    79    84    77
 C    -1.68690   3.97050   1.37600    77    67    76    78
 C    -0.32410   4.20210   1.41490    78    77    70    81
 C    -1.82330   4.14760  -0.94790    79    76    80    90
 C    -0.51170   4.47380  -0.96380    80    79    95    81
 C     0.30770   4.56090   0.17630    81    99    80    78
 C    -4.50050   1.16890  -0.44320    82    83    89    72
 C    -3.91230   2.35780  -0.78370    83    82    84    91
 C    -3.48250   3.13510   0.30090    84    76    75    83
 C    -1.31520  -0.09720  -3.90520    85    41    86    28
 C    -1.76710   1.16240  -3.58990    86    85    97    87
 C    -3.00120   1.25070  -2.82030    87    91    88    86
 C    -3.66870   0.02390  -2.42380    88    89    39    87
 C    -4.41330   0.04840  -1.23910    89    82    35    88
 C    -2.16820   3.37410  -2.04240    90    96    79    91
 C    -3.17720   2.41870  -1.99950    91    90    83    87
 C     1.22100   3.66380  -2.29140    92    95   100    93
 C     1.58900   2.60080  -3.06280    93    92    23    94
 C     0.65500   1.79560  -3.70240    94    93    27    97
 C    -0.05790   3.97750  -2.15340    95    92    80    96
 C    -1.03110   3.25630  -2.78720    96    90    95    97
 C    -0.74400   2.14370  -3.55400    97    96    86    94
 C     2.36800   3.73830   0.99210    98    99    11    71
 C     1.66050   4.28560  -0.03270    99    98   100    81
 C     2.10120   3.86010  -1.28620   100    92     9    99
