   100
C100-C2-396                                                                     
 C     1.09440   3.38850  -2.56600     1     2     6    69
 C     2.19080   2.62310  -2.79500     2     1     3     9
 C     3.19380   2.76030  -1.83640     3     4    66     2
 C     4.07170   1.77210  -1.58380     4     5     3    36
 C     3.98380   0.61310  -2.25490     5     4    22    10
 C    -0.16170   3.01180  -2.99700     6    14     1     7
 C    -0.41820   1.81110  -3.63790     7     6    18     8
 C     0.72680   0.94430  -3.86780     8     9    12     7
 C     2.02250   1.38690  -3.46160     9    10     2     8
 C     2.96610   0.41070  -3.15810    10     5    30     9
 C    -0.80690  -0.88440  -3.88160    11    31    12    19
 C     0.50670  -0.47930  -3.94130    12    11     8    29
 C    -2.37790   3.17270  -1.96680    13    14    71    17
 C    -1.09020   3.64380  -2.19560    14    68     6    13
 C    -4.29780   1.55630  -0.83390    15    72    96    16
 C    -3.80340   1.16830  -2.09250    16    15    99    17
 C    -2.75520   1.97970  -2.66440    17    13    16    18
 C    -1.75050   1.32720  -3.49220    18    19     7    17
 C    -1.88970  -0.03250  -3.68600    19   100    18    11
 C     4.40870  -1.77100   0.27020    20    37    21    26
 C     4.76220  -0.59870  -0.35800    21    20    22    35
 C     4.32260  -0.56220  -1.67440    22     5    23    21
 C     3.54520  -1.55090  -2.25760    23    25    30    22
 C     1.97110  -3.35840  -1.95990    24    25    28    33
 C     3.18800  -2.71530  -1.61580    25    23    26    24
 C     3.68960  -2.80200  -0.31770    26    44    20    25
 C    -0.00800  -4.41210  -1.03730    27    34    88    28
 C     1.35310  -4.16770  -0.93780    28    27    43    24
 C     1.48630  -1.45990  -3.53590    29    30    12    33
 C     2.70380  -0.93980  -3.17000    30    29    10    23
 C    -1.17550  -2.13880  -3.46290    31    11    92    32
 C    -0.25740  -3.06700  -2.98830    32    34    31    33
 C     1.11650  -2.74510  -2.98020    33    32    29    24
 C    -0.78950  -3.92090  -2.03920    34    27    32    95
 C     4.76140   0.61420   0.37300    35    36    39    21
 C     4.41590   1.78260  -0.25910    36     4    35    48
 C     4.05290  -1.77040   1.59170    37    38    40    20
 C     3.97180  -0.61050   2.26250    38    37    39    59
 C     4.31590   0.56470   1.68520    39    38    46    35
 C     3.18280  -2.76440   1.84430    40    37    44    41
 C     2.18040  -2.62820   2.80290    41    42    40    58
 C     1.08790  -3.39520   2.57440    42    41    60    45
 C     1.86080  -4.15630   0.39470    43    44    45    28
 C     2.99530  -3.46240   0.65890    44    43    26    40
 C     0.94740  -4.18980   1.45020    45    89    42    43
 C     3.53490   1.55170   2.26450    46    47    52    39
 C     3.17860   2.71960   1.62790    47    46    48    49
 C     3.68800   2.80650   0.32900    48    66    36    47
 C     1.96100   3.35890   1.96360    49    47    50    54
 C     1.34560   4.16640   0.93940    50    51    65    49
 C    -0.01690   4.40100   1.04330    51    57    67    50
 C     2.69020   0.93210   3.16870    52    53    59    46
 C     1.47090   1.45320   3.53610    53    52    63    54
 C     1.10400   2.74130   2.97970    54    56    53    49
 C    -1.18830   2.13050   3.45750    55    64    73    56
 C    -0.27150   3.06050   2.98640    56    57    55    54
 C    -0.80420   3.91380   2.03810    57    51    56    75
 C     2.00700  -1.39130   3.47150    58    59    41    62
 C     2.95450  -0.41880   3.16650    59    38    52    58
 C    -0.16820  -3.02080   3.00340    60    42    80    61
 C    -0.42800  -1.81930   3.64240    61    60    83    62
 C     0.71210  -0.94430   3.87500    62    58    63    61
 C     0.48830   0.47780   3.94480    63    64    62    53
 C    -0.82480   0.87590   3.88400    64    63    55    84
 C     1.85900   4.15470  -0.38930    65    66    69    50
 C     2.99490   3.46270  -0.65100    66    65    48     3
 C    -0.85640   4.53890  -0.04570    67    68    70    51
 C    -0.36330   4.35170  -1.26640    68    67    69    14
 C     0.95010   4.18300  -1.44360    69    68     1    65
 C    -2.11280   4.14920   0.23750    70    67    75    71
 C    -2.93190   3.50450  -0.69550    71    72    70    13
 C    -3.85140   2.65230  -0.15510    72    15    71    76
 C    -2.49630   2.05590   3.02400    73    74    77    55
 C    -2.98640   2.90140   2.06280    74    75    76    73
 C    -2.11070   3.81600   1.57770    75    74    70    57
 C    -3.90010   2.36090   1.20720    76    74    79    72
 C    -2.92300   0.75340   3.15230    77    84    73    78
 C    -3.88620   0.20430   2.33570    78    77    79    86
 C    -4.36300   1.08140   1.35180    79    96    76    78
 C    -1.09170  -3.65540   2.19800    80    89    60    81
 C    -2.37730  -3.18040   1.96000    81    80    91    82
 C    -2.75960  -1.98820   2.65770    82    81    86    83
 C    -1.76110  -1.33760   3.49220    83    84    61    82
 C    -1.90060   0.01920   3.68760    84    77    83    64
 C    -4.30090  -1.57510   0.82090    85    90    97    86
 C    -3.80660  -1.18330   2.07490    86    85    78    82
 C    -2.09430  -4.15740  -0.24520    87    88    95    91
 C    -0.84470  -4.55980   0.04920    88    89    87    27
 C    -0.36830  -4.37000   1.27060    89    88    45    80
 C    -3.84820  -2.66350   0.13650    90    85    91    93
 C    -2.92380  -3.51010   0.68190    91    90    87    81
 C    -2.48750  -2.06760  -3.03980    92    94   100    31
 C    -3.89320  -2.38200  -1.22870    93    94    98    90
 C    -2.97160  -2.91920  -2.08000    94    95    93    92
 C    -2.09790  -3.82600  -1.58570    95    94    87    34
 C    -4.69380   0.63580   0.11520    96    97    79    15
 C    -4.68870  -0.66120  -0.14120    97    96    98    85
 C    -4.36030  -1.10030  -1.38150    98    97    93    99
 C    -3.88200  -0.21620  -2.36080    99   100    98    16
 C    -2.92240  -0.76890  -3.16950   100    19    99    92
