   100
C100-C1-20                                                                      
 C    -4.98380  -1.04180   0.36250     1     2     5    63
 C    -5.11990   0.27490  -0.06470     2    45     9     1
 C    -3.35850  -3.13250   1.20120     3     4     6    62
 C    -3.66540  -2.16160   2.04290     4     3     5    23
 C    -4.49060  -1.14720   1.67440     5     4     7     1
 C    -2.15030  -3.73620   1.30010     6     3    69    21
 C    -4.12180  -0.06330   2.42890     7     8     5    11
 C    -4.31210   1.21420   1.98890     8     7    10     9
 C    -4.83560   1.37950   0.71710     9    30     2     8
 C    -3.35570   2.10960   2.39150    10    28     8    15
 C    -2.98940  -0.42990   3.17340    11    23    14     7
 C    -0.32680  -1.41320   3.49490    12    22    26    13
 C    -0.64270   0.00130   3.72720    13    14    18    12
 C    -1.98950   0.44170   3.53780    14    11    15    13
 C    -2.24930   1.74200   3.14750    15    40    14    10
 C     3.33450  -1.10060   2.79580    16    27    96    17
 C     2.06910  -0.82760   3.35350    17    16    26    38
 C     0.40390   0.99150   3.61860    18    38    13    39
 C     0.37830  -4.21900   0.57220    19    98    68    20
 C     0.20000  -3.67930   1.86210    20    21    19    25
 C    -1.12610  -3.37890   2.21230    21    20     6    22
 C    -1.40140  -2.26390   3.04760    22    23    21    12
 C    -2.69620  -1.73530   2.93300    23    11     4    22
 C     2.57780  -3.08070   1.71270    24    27   100    25
 C     1.31210  -2.98440   2.40110    25    20    24    26
 C     1.03640  -1.81150   3.23440    26    17    12    25
 C     3.58370  -2.18440   1.98750    27    16    24    94
 C    -2.96960   3.17660   1.62600    28    10    32    29
 C    -3.48260   3.33290   0.35500    29    31    30    28
 C    -4.38110   2.40090  -0.09620    30    29     9    44
 C    -2.57240   3.81450  -0.54110    31    29    37    42
 C    -1.67530   3.51290   1.95510    32    36    28    40
 C     2.29280   2.66360   2.39270    33    34    60    41
 C     1.01280   3.11000   2.38630    34    33    39    35
 C     0.59620   3.94030   1.28080    35    36    34    59
 C    -0.78630   4.09990   1.08640    36    32    37    35
 C    -1.30550   4.23150  -0.18950    37    54    31    36
 C     1.73470   0.56140   3.50560    38    18    41    17
 C     0.07440   2.32870   3.13310    39    40    34    18
 C    -1.23920   2.61990   2.90990    40    15    39    32
 C     2.67230   1.48030   3.00580    41    97    33    38
 C    -2.48450   3.30070  -1.82330    42    47    43    31
 C    -3.28840   2.28420  -2.26960    43    42    44    51
 C    -4.30230   1.89810  -1.38710    44    45    30    43
 C    -4.77570   0.62790  -1.35470    45    46    44     2
 C    -4.24730  -0.27960  -2.19680    46    45    64    52
 C    -1.21000   3.45300  -2.23910    47    42    49    54
 C     0.73600   2.56770  -3.04980    48    49    70    58
 C    -0.61770   2.56030  -3.11170    49    48    47    50
 C    -1.29970   1.39460  -3.52940    50    49    51    72
 C    -2.67160   1.30790  -3.12250    51    52    50    43
 C    -3.20490   0.03810  -3.04500    52    74    51    46
 C     0.86780   4.03240  -1.12540    53    54    58    59
 C    -0.48030   4.10650  -1.25370    54    37    53    47
 C     4.47460   2.00310  -0.78440    55    92    56    86
 C     3.47680   2.95510  -0.92260    56    57    55    61
 C     2.69910   2.80690  -2.04390    57    58    56    88
 C     1.47160   3.32970  -2.14490    58    57    53    48
 C     1.50310   4.02530   0.14730    59    61    53    35
 C     3.22640   2.93320   1.41020    60    90    33    61
 C     2.82050   3.51080   0.21770    61    60    59    56
 C    -3.77510  -3.06180  -0.11440    62    67    63     3
 C    -4.54330  -2.01230  -0.56640    63    62    64     1
 C    -4.14900  -1.58120  -1.83470    64    46    65    63
 C    -3.06430  -2.09860  -2.53100    65    66    74    64
 C    -2.34650  -3.16300  -2.08630    66    65    67    77
 C    -2.77380  -3.64630  -0.84380    67    69    62    66
 C    -0.63730  -4.32520  -0.32230    68    69    19    78
 C    -1.86930  -4.14080   0.03110    69    68    67     6
 C     1.50700   1.49880  -3.40340    70    48    88    71
 C     0.94780   0.25910  -3.73260    71    70    80    72
 C    -0.48920   0.19410  -3.79730    72    73    71    50
 C    -1.09460  -1.08890  -3.60660    73    74    72    76
 C    -2.45290  -1.09530  -3.26140    74    52    65    73
 C     1.13350  -2.11130  -3.16080    75    83    80    76
 C    -0.30840  -2.23350  -3.23750    76    73    75    77
 C    -0.98630  -3.25270  -2.45670    77    78    66    76
 C    -0.19040  -3.95240  -1.56420    78    84    68    77
 C     3.15140  -0.62790  -2.95340    79    81    87    80
 C     1.80110  -0.86550  -3.45330    80    71    75    79
 C     3.77040  -1.60510  -2.16990    81    82    89    79
 C     3.08770  -2.72250  -1.80630    82    81    83    99
 C     1.84140  -3.00370  -2.29080    83    84    82    75
 C     1.12980  -3.82580  -1.46690    84    78    83    98
 C     5.13030  -0.10690  -0.92140    85    89    86    91
 C     4.57160   0.90640  -1.65010    86    85    55    87
 C     3.62660   0.67670  -2.65870    87    88    86    79
 C     2.75260   1.68450  -2.86250    88    87    70    57
 C     4.71160  -1.35990  -1.19090    89    85    93    81
 C     4.22840   2.02060   1.51570    90    60    92    97
 C     5.35250   0.29030   0.37260    91    92    85    95
 C     4.93160   1.58220   0.43650    92    91    90    55
 C     4.51140  -2.24670  -0.16970    93    99    94    89
 C     4.60920  -1.82840   1.11840    94    95    93    27
 C     5.02940  -0.57360   1.39480    95    94    96    91
 C     4.25480  -0.13870   2.42980    96    97    95    16
 C     3.88520   1.14110   2.50220    97    96    41    90
 C     1.50650  -4.06780  -0.14330    98   100    19    84
 C     3.52800  -3.08550  -0.52400    99    93   100    82
 C     2.63830  -3.61020   0.38740   100    98    99    24
