   100
C100-C2-212                                                                     
 C     1.95920   0.46840  -3.59900     1     7     2    63
 C     0.76470   1.13270  -3.71870     2     1    61    10
 C    -1.69140   0.94120  -3.56180     3     4    10    14
 C    -1.63880   2.29800  -3.19590     4     5    62     3
 C    -2.59740   2.91390  -2.45670     5     6    23     4
 C    -3.64450   2.21970  -2.01370     6     5    15    24
 C     2.04450  -0.89430  -3.58290     7     1     8    74
 C     0.91720  -1.68890  -3.62350     8     7    20     9
 C    -0.38330  -1.11650  -3.74740     9     8    10    12
 C    -0.45420   0.32570  -3.85280    10     3     9     2
 C    -1.24170  -3.12490  -2.59110    11    16    19    12
 C    -1.52330  -1.87380  -3.24370    12    11    13     9
 C    -2.75780  -1.21180  -2.88850    13    14    12    18
 C    -2.83430   0.19490  -3.09730    14    15    13     3
 C    -3.77460   0.90340  -2.31920    15     6    29    14
 C    -2.09090  -3.63450  -1.63920    16    17    11   100
 C    -3.25340  -3.01050  -1.30530    17    16    95    18
 C    -3.63680  -1.80210  -1.88440    18    17    28    13
 C     0.05560  -3.55250  -2.43030    19    20    11    98
 C     1.09910  -2.88760  -2.95780    20    19     8    75
 C    -2.50380   4.09200  -0.45160    21    33    23    22
 C    -3.52340   3.33810   0.02830    22    24    21    41
 C    -2.03590   3.88880  -1.70720    23     5    49    21
 C    -4.13930   2.44770  -0.76660    24    25    22     6
 C    -4.60840   1.30130  -0.27410    25    24    26    29
 C    -4.43720   0.96910   1.07440    26    27    25    40
 C    -4.47310  -0.35490   1.31140    27    26    43    30
 C    -4.44580  -0.97970  -1.04250    28    29    30    18
 C    -4.48990   0.33950  -1.28630    29    28    15    25
 C    -4.60410  -1.32330   0.30440    30    96    28    27
 C     0.52320   4.21550   1.30350    31    50    32    36
 C    -0.27850   4.52110   0.25670    32    31    33    48
 C    -1.61900   4.32320   0.52900    33    21    32    34
 C    -2.08320   3.63290   1.66020    34    41    35    33
 C    -1.23160   3.12400   2.60750    35    34    36    46
 C     0.06470   3.54300   2.44100    36    38    35    31
 C     0.93110   1.68350   3.61890    37    39    38    47
 C     1.11310   2.88510   2.95880    38    36    37    54
 C     2.05890   0.88970   3.56690    39    93    37    55
 C    -3.63160   1.80030   1.91020    40    41    26    45
 C    -3.24900   3.00370   1.33380    41    34    22    40
 C    -0.44540  -0.33570   3.84800    42    91    47    92
 C    -3.76120  -0.92160   2.34290    43    88    27    44
 C    -2.82550  -0.19820   3.11480    44    43    45    91
 C    -2.74950   1.20760   2.90980    45    44    46    40
 C    -1.51300   1.87090   3.25790    46    35    45    47
 C    -0.37110   1.10930   3.74920    47    37    42    46
 C     0.24390   4.32050  -1.06190    48    49    52    32
 C    -0.71150   3.94370  -1.98940    49    23    62    48
 C     1.83500   3.93210   1.14240    50    31    54    51
 C     2.42860   3.79610  -0.11490    51    53    50    52
 C     1.57990   3.87450  -1.26200    52    48    51    60
 C     3.54670   2.99170  -0.10690    53    58    51    57
 C     2.24950   3.19740   2.23310    54    56    50    38
 C     3.22960   1.23760   2.91280    55    68    56    39
 C     3.33390   2.39630   2.18990    56    54    57    55
 C     4.03810   2.33680   1.01680    57    70    56    53
 C     3.88020   2.23410  -1.19240    58    53    59    64
 C     3.04500   2.18400  -2.30380    59    63    58    60
 C     1.87460   2.97410  -2.37590    60    59    61    52
 C     0.77090   2.45910  -3.16720    61    62     2    60
 C    -0.45830   2.99180  -2.95960    62    61    49     4
 C     3.07380   0.96920  -2.95610    63    59     1    67
 C     4.62970   1.14700  -0.74320    64    66    70    58
 C     4.66950  -1.20140  -0.64240    65    72    71    66
 C     4.62770  -0.04640  -1.41700    66    64    67    65
 C     3.84950  -0.09950  -2.54900    67    74    66    63
 C     3.86500   0.09010   2.52130    68    55    69    82
 C     4.65250   0.03680   1.39070    69    71    68    70
 C     4.69220   1.19850   0.63280    70    57    64    69
 C     4.63900  -1.16000   0.73380    71    69    65    87
 C     4.01430  -2.34420  -1.02890    72    65    73    76
 C     3.31600  -2.39360  -2.21060    73    75    74    72
 C     3.21870  -1.24310  -2.93810    74    67    73     7
 C     2.23530  -3.20430  -2.23220    75    73    79    20
 C     3.54790  -3.00890   0.09880    76    87    78    72
 C     1.58550  -3.88300   1.25160    77    81    78    85
 C     2.42900  -3.81200   0.09900    78    76    79    77
 C     1.82910  -3.95460  -1.15030    79    98    75    78
 C    -0.70410  -3.95710   1.97840    80    97    81    83
 C     0.24980  -4.33210   1.04670    81    80    77    99
 C     3.07780  -0.97400   2.93740    82    93    86    68
 C    -0.44590  -2.99810   2.94570    83    84    80    90
 C     0.78490  -2.45880   3.15080    84    83    92    85
 C     1.88820  -2.97860   2.35990    85    86    84    77
 C     3.06070  -2.19330   2.28400    86    82    87    85
 C     3.89680  -2.24770   1.17750    87    76    86    71
 C    -3.64070  -2.23630   2.03130    88    89    43    96
 C    -2.58440  -2.92780   2.46510    89    88    97    90
 C    -1.62380  -2.30780   3.20010    90    89    83    91
 C    -1.68290  -0.95340   3.56390    91    90    42    44
 C     0.77840  -1.13300   3.70700    92    93    84    42
 C     1.97040  -0.47060   3.58800    93    39    92    82
 C    -2.51770  -4.12180   0.46340    94   100    97    95
 C    -3.54340  -3.36840  -0.00720    95    96    94    17
 C    -4.14890  -2.47970   0.78920    96    30    95    88
 C    -2.03710  -3.90840   1.70950    97    94    89    80
 C     0.52140  -4.24150  -1.30620    98    79    99    19
 C    -0.28620  -4.54300  -0.26670    99    98   100    81
 C    -1.62670  -4.34980  -0.51960   100    94    99    16
