   100
C100-C2-448                                                                     
 C    -1.09730   3.73080  -2.06940     1     2     6    66
 C    -2.20970   3.02010  -2.39890     2     1     3     9
 C    -3.18880   3.00750  -1.41010     3     4    63     2
 C    -4.06740   1.98800  -1.30690     4     5     3    33
 C    -3.99050   0.94640  -2.15040     5     4    19    10
 C     0.14840   3.44160  -2.58250     6     1    68     7
 C     0.36690   2.37260  -3.43950     7     6    15     8
 C    -0.77530   1.53890  -3.77060     8     9    12     7
 C    -2.05660   1.90440  -3.26320     9    10     2     8
 C    -2.99000   0.88740  -3.09110    10     5    27     9
 C     0.77370  -0.25410  -4.08370    11    12    16    28
 C    -0.54500   0.13690  -4.05430    12    11    26     8
 C     3.72310   1.53120  -2.12060    13    99    76    14
 C     2.70330   2.40380  -2.50520    14    13    69    15
 C     1.69740   1.89140  -3.42030    15    16     7    14
 C     1.84130   0.57410  -3.81870    16   100    11    15
 C    -4.39750  -1.79010   0.00230    17    34    18    23
 C    -4.75090  -0.53780  -0.44750    18    17    19    32
 C    -4.32090  -0.30240  -1.74570    19     5    20    18
 C    -3.54260  -1.18860  -2.47450    20    22    27    19
 C    -1.94080  -2.99330  -2.43520    21    22    25    30
 C    -3.16940  -2.42820  -2.00400    22    20    23    21
 C    -3.66750  -2.71090  -0.73300    23    41    17    22
 C     0.06710  -4.09330  -1.65340    24    31    85    25
 C    -1.30610  -3.91990  -1.53170    25    24    40    21
 C    -1.50320  -0.89800  -3.75640    26    27    12    30
 C    -2.71980  -0.44730  -3.30290    27    26    10    20
 C     1.16930  -1.54850  -3.80170    28    29    11    90
 C     0.27900  -2.52320  -3.41450    29    28    31    30
 C    -1.10490  -2.23760  -3.36780    30    29    26    21
 C     0.84160  -3.45380  -2.56220    31    24    29    93
 C    -4.74890   0.54350   0.46740    32    33    36    18
 C    -4.39980   1.79280   0.00730    33     4    32    45
 C    -4.06150  -1.98690   1.31520    34    35    37    17
 C    -3.98420  -0.94670   2.16040    35    34    36    56
 C    -4.31690   0.30260   1.76000    36    35    32    43
 C    -3.18380  -3.00650   1.42510    37    34    38    41
 C    -2.19520  -3.02630   2.40540    38    39    37    55
 C    -1.08980  -3.73890   2.06860    39    38    57    42
 C    -1.82250  -4.12520  -0.22150    40    41    42    25
 C    -2.97290  -3.50090   0.13980    41    40    23    37
 C    -0.92250  -4.31630   0.82220    42    86    39    40
 C    -3.53300   1.18670   2.48270    43    44    49    36
 C    -3.16210   2.42740   2.01010    44    43    45    46
 C    -3.66630   2.71340   0.74160    45    63    33    44
 C    -1.93040   2.99090   2.43470    46    44    47    51
 C    -1.29190   3.91760   1.53290    47    48    62    46
 C     0.08060   4.08980   1.64640    48    54    64    47
 C    -2.70660   0.44150   3.30460    49    50    56    43
 C    -1.48740   0.89310   3.75210    50    49    60    51
 C    -1.09070   2.23310   3.36270    51    53    50    46
 C     1.18920   1.54360   3.78290    52    53    61    71
 C     0.29440   2.51830   3.40410    53    52    54    51
 C     0.85710   3.44830   2.55240    54    48    53    73
 C    -2.03980  -1.90990   3.26910    55    56    38    59
 C    -2.98010  -0.89710   3.09840    56    35    49    55
 C     0.15690  -3.45080   2.57860    57    39    89    58
 C     0.37920  -2.37920   3.43330    58    57    81    59
 C    -0.75800  -1.53860   3.77060    59    55    60    58
 C    -0.52450  -0.13820   4.04930    60    61    50    59
 C     0.79210   0.25260   4.07350    61    60    82    52
 C    -1.81970   4.12420   0.22440    62    63    66    47
 C    -2.97380   3.50480  -0.13060    63    62    45     3
 C     0.90780   4.36680   0.57850    64    65    67    48
 C     0.39760   4.42200  -0.64390    65    64    66    68
 C    -0.92480   4.31200  -0.82500    66    65     1    62
 C     2.16000   3.87820   0.78870    67    64    73    70
 C     1.10430   3.91070  -1.69470    68    65    69     6
 C     2.38390   3.39580  -1.55990    69    68    14    70
 C     2.98260   3.39840  -0.24210    70    67    75    69
 C     2.50060   1.49620   3.34140    71    77    52    72
 C     3.03640   2.38350   2.41390    72    73    71    74
 C     2.16210   3.36120   2.05730    73    72    67    54
 C     3.97950   1.91280   1.47510    74    79    72    75
 C     3.93460   2.41900   0.12920    75    76    70    74
 C     4.31440   1.53010  -0.87320    76    13    97    75
 C     2.88710   0.20270   3.39780    77    78    71    82
 C     3.81650  -0.25010   2.56400    78    77    79    83
 C     4.37630   0.57380   1.63060    79    96    78    74
 C     2.71450  -2.40950   2.49110    80    83    88    81
 C     1.71120  -1.89820   3.40880    81    82    58    80
 C     1.85560  -0.58320   3.80890    82    77    61    81
 C     3.73470  -1.53930   2.10250    83    78    94    80
 C     2.15400  -3.88870  -0.79800    84    85    93    87
 C     0.89890  -4.37240  -0.58960    85    86    84    24
 C     0.40260  -4.42760   0.63890    86    85    42    89
 C     2.98100  -3.40400   0.22750    87    84    95    88
 C     2.38490  -3.40280   1.54990    88    89    80    87
 C     1.10930  -3.92130   1.68880    89    86    88    57
 C     2.48580  -1.50820  -3.36380    90   100    28    92
 C     3.96530  -1.92630  -1.49780    91    98    92    95
 C     3.01720  -2.39430  -2.43320    92    93    90    91
 C     2.14750  -3.36980  -2.06890    93    92    84    31
 C     4.32460  -1.54690   0.85490    94    83    96    95
 C     3.93480  -2.42700  -0.14820    95    94    87    91
 C     4.72280  -0.24530   0.60630    96    97    79    94
 C     4.71260   0.22820  -0.63610    97    96    98    76
 C     4.35830  -0.58410  -1.66260    98    97    99    91
 C     3.80240   0.24530  -2.59380    99   100    98    13
 C     2.87330  -0.21200  -3.41990   100    99    90    16
