   100
C100-C1-389                                                                     
 C     4.36700   1.94040   0.70080     1     2     5    61
 C     3.63330   3.06430   0.42620     2    43     1    15
 C     4.64160  -0.78420   1.10450     3     4     6    60
 C     4.15220   0.00090   2.07060     4     3     5     7
 C     4.02010   1.33030   1.89610     5     4    13     1
 C     4.20260  -2.05740   1.00390     6     3    67     9
 C     3.15630  -0.46280   2.89810     7     4    19     8
 C     2.66240  -1.75330   2.84850     8     7    30     9
 C     3.25200  -2.62920   1.86490     9    11     6     8
 C     1.24130  -3.87890   1.86490    10    11   100    29
 C     2.48530  -3.66500   1.33370    11    10     9    12
 C     2.58500  -3.94910  -0.03810    12    66    97    11
 C     2.95050   1.73690   2.67600    13    14    19     5
 C     2.21750   2.86030   2.40470    14    13    15    16
 C     2.63440   3.54630   1.26090    15    35     2    14
 C     0.86950   2.91280   2.83030    16    14    17    21
 C     0.02750   3.82480   2.10540    17    18    34    16
 C    -1.33030   3.61770   2.17440    18    24    17    36
 C     2.39460   0.62180   3.27910    19     7    13    20
 C     1.05930   0.54020   3.66540    20    19    21    31
 C     0.27700   1.73650   3.49380    21    23    20    16
 C    -1.73530   0.27190   3.56840    22    25    32    23
 C    -1.12980   1.57000   3.48490    23    24    21    22
 C    -1.88280   2.57070   2.85580    24    18    27    23
 C    -3.03080   0.15120   3.02690    25    96    26    22
 C    -3.68100   1.18280   2.38700    26    27    58    25
 C    -3.11600   2.36370   2.29870    27    26    39    24
 C    -1.56420  -2.14640   3.12010    28    33    95    32
 C     0.67020  -3.03050   2.80530    29    33    30    10
 C     1.31780  -1.90290   3.29320    30    29     8    31
 C     0.47920  -0.78700   3.70560    31    32    20    30
 C    -0.96000  -0.92250   3.63480    32    22    31    28
 C    -0.69610  -3.14310   2.71220    33    29    28    91
 C     0.47710   4.46190   0.91010    34    35    38    17
 C     1.75220   4.25780   0.50580    35    34    15    42
 C    -2.22810   3.95180   1.17270    36    37    39    18
 C    -1.73820   4.39880   0.01480    37    36    38    52
 C    -0.42760   4.64430  -0.12820    38    37    40    34
 C    -3.31660   3.15030   1.20360    39    36    27    57
 C    -0.09670   4.34170  -1.44050    40    41    45    38
 C     1.15210   3.98480  -1.81960    41    40    42    49
 C     2.11660   4.09540  -0.82720    42    43    41    35
 C     3.25360   3.38810  -0.84710    43    42    44     2
 C     3.47860   2.50970  -1.83520    44    43    62    50
 C    -1.21350   3.81720  -2.02180    45    40    52    47
 C    -2.20070   1.98790  -2.99990    46    47    68    56
 C    -1.09980   2.79560  -2.95950    47    46    45    48
 C     0.16390   2.27220  -3.34080    48    47    49    70
 C     1.30050   2.95560  -2.80240    49    50    41    48
 C     2.48680   2.25800  -2.76100    50    72    49    44
 C    -3.36970   3.06770  -1.14690    51    52    56    57
 C    -2.28190   3.91430  -1.14230    52    37    51    45
 C    -4.67370  -0.82460  -0.77420    53    90    54    84
 C    -4.64670   0.54670  -0.95410    54    53    55    59
 C    -3.93000   0.93720  -2.07750    55    56    54    86
 C    -3.31180   2.13530  -2.16150    56    55    51    46
 C    -3.99330   2.67410   0.06550    57    39    59    51
 C    -4.49210   0.71960   1.39470    58    88    26    59
 C    -4.61780   1.40780   0.16910    59    58    54    57
 C     4.88610  -0.23690  -0.13830    60    61     3    65
 C     4.74480   1.10380  -0.37940    61    60    62     1
 C     4.20630   1.39810  -1.62790    62    44    63    61
 C     3.71010   0.42660  -2.48310    63    64    62    72
 C     3.83230  -0.90260  -2.23780    64    63    65    75
 C     4.50980  -1.21050  -1.04340    65    67    60    64
 C     3.36500  -3.20630  -0.85320    66    67    12    76
 C     4.20670  -2.33050  -0.34600    67    66    65     6
 C    -2.11720   0.67880  -3.39900    68    46    86    69
 C    -0.91230   0.03960  -3.74000    69    68    70    78
 C     0.27260   0.85380  -3.73100    70    71    69    48
 C     1.53060   0.17140  -3.60060    71    72    70    74
 C     2.60840   0.94290  -3.14830    72    50    63    71
 C     0.40770  -2.03400  -3.38580    73    81    78    74
 C     1.63080  -1.25300  -3.40790    74    71    73    75
 C     2.81730  -1.76280  -2.73010    75    76    64    74
 C     2.69100  -2.95810  -2.03060    76    82    66    75
 C    -2.07670  -2.03130  -3.05560    77    79    85    78
 C    -0.87790  -1.38980  -3.56700    78    69    73    77
 C    -1.92780  -3.21700  -2.34360    79    80    87    77
 C    -0.73030  -3.80740  -2.14670    80    79    81    98
 C     0.43150  -3.28690  -2.67540    81    82    80    73
 C     1.55610  -3.68150  -1.98760    82    76    81    97
 C    -3.73350  -2.81540  -0.90290    83    87    84    89
 C    -4.04340  -1.70920  -1.63140    84    83    53    85
 C    -3.23230  -1.29690  -2.69280    85    86    84    77
 C    -3.22180   0.04220  -2.87810    86    85    68    55
 C    -2.72570  -3.57670  -1.27920    87    83    92    79
 C    -4.45830  -0.62670   1.53020    88    90    58    96
 C    -4.00880  -2.60900   0.42370    89    90    83    94
 C    -4.62420  -1.41360   0.46990    90    88    89    53
 C    -0.98360  -4.04810   1.70270    91   100    93    33
 C    -1.99930  -4.25410  -0.36380    92    87    98    93
 C    -2.16570  -3.99680   1.00690    93    91    94    92
 C    -3.14560  -3.09750   1.42630    94    93    89    95
 C    -2.85740  -2.18730   2.50380    95    96    28    94
 C    -3.55730  -1.00210   2.51280    96    25    95    88
 C     1.50600  -4.36350  -0.76600    97    99    12    82
 C    -0.78300  -4.50500  -0.93280    98    99    92    80
 C     0.33030  -4.69770  -0.19300    99    97    98   100
 C     0.20910  -4.44760   1.15670   100    91    10    99
