   100
C100-C1-193                                                                     
 C    -1.28780   3.84400   1.67150     1    16    52     2
 C    -1.85100   2.88420   2.52760     2     1     3    11
 C    -3.10260   2.34160   2.12090     3    76     2     4
 C    -3.46440   1.01640   2.50160     4     5     3     7
 C    -4.34810   0.32890   1.63100     5    50    24     4
 C    -1.29870   0.81340   3.71400     6    14    11     7
 C    -2.56500   0.22980   3.28580     7     4     8     6
 C    -2.65810  -1.21230   3.15170     8     9    23     7
 C    -1.53690  -1.97500   3.44830     9    15    25     8
 C     0.49940   2.52630   3.25120    10    12    18    11
 C    -0.91670   2.16270   3.32690    11     2     6    10
 C     1.44550   1.56660   3.57750    12    13    21    10
 C     1.08840   0.30120   3.92800    13    12    14    31
 C    -0.22630  -0.08500   4.01420    14    15    13     6
 C    -0.36630  -1.44030   3.85570    15     9    14    33
 C     0.04270   4.11430   1.57780    16     1    18    63
 C     2.33520   3.44610   1.80890    17    20    22    18
 C     1.00880   3.51860   2.35280    18    16    10    17
 C     4.15350   1.92190   1.30910    19   100    94    20
 C     3.21200   2.42900   2.19990    20    21    19    17
 C     2.73670   1.50660   3.08890    21    20    12    96
 C     2.49000   3.85780   0.46540    22    62    98    17
 C    -3.52050  -1.82010   2.19260    23    24    27     8
 C    -4.32140  -1.03110   1.44250    24    23     5    39
 C    -1.21760  -3.16790   2.84880    25    26    34     9
 C    -1.99130  -3.64230   1.88650    26    25    27    29
 C    -3.12250  -2.99170   1.55270    27    26    37    23
 C     0.39330  -4.45550  -0.53860    28    92    30    43
 C    -1.43170  -4.25760   0.81990    29    26    30    42
 C    -0.06260  -4.46010   0.74560    30    28    29    36
 C     2.14220  -0.56200   3.60390    31    96    32    13
 C     1.95610  -1.88980   3.27870    32    33    31    88
 C     0.67490  -2.30360   3.48280    33    34    32    15
 C     0.13730  -3.34550   2.80530    34    33    25    36
 C     2.15730  -3.57410   1.49440    35    91    36    88
 C     0.81270  -3.99200   1.77220    36    34    30    35
 C    -3.31310  -3.22620   0.19750    37    38    42    27
 C    -3.99640  -2.35060  -0.58850    38    37    39    46
 C    -4.61390  -1.30920   0.09850    39    40    38    24
 C    -4.89450  -0.13200  -0.47260    40    39    41    50
 C    -4.47520   0.08320  -1.74790    41    51    40    47
 C    -2.25430  -3.95800  -0.25830    42    37    44    29
 C    -0.41780  -4.09900  -1.62590    43    70    44    28
 C    -1.75110  -3.77920  -1.53190    44    43    42    45
 C    -2.31570  -2.77910  -2.38350    45    46    44    72
 C    -3.48730  -2.11450  -1.91120    46    47    45    38
 C    -3.74350  -0.84950  -2.41910    47    41    74    46
 C    -4.42740   2.07670   0.07340    48    50    76    49
 C    -4.08050   2.32470  -1.23350    49    51    54    48
 C    -4.80430   0.86310   0.45140    50    48    40     5
 C    -4.04500   1.31620  -2.11130    51    49    41    55
 C    -1.81290   4.12990   0.42920    52    53    60     1
 C    -2.93780   3.61690   0.04150    53    52    76    54
 C    -3.11070   3.25290  -1.27320    54    49    53    57
 C    -3.00030   1.19650  -2.98880    55    51    74    56
 C    -1.95410   2.13440  -3.08460    56    55    67    57
 C    -2.03430   3.25110  -2.19170    57    59    54    56
 C     0.39970   3.50820  -2.33880    58    61    59    68
 C    -0.85320   3.88600  -1.79340    59    57    60    58
 C    -0.82700   4.37700  -0.46370    60    63    52    59
 C     1.53810   3.80840  -1.57330    61    82    62    58
 C     1.45050   4.28870  -0.27660    62    63    22    61
 C     0.28380   4.48750   0.26920    63    62    60    16
 C     1.81710   1.73280  -3.29850    64    69    81    68
 C     0.65600  -0.28610  -3.95730    65    66    75    69
 C    -0.60830   0.25030  -3.90210    66    65    73    67
 C    -0.69660   1.66490  -3.57130    67    56    66    68
 C     0.52300   2.39170  -3.23360    68    58    64    67
 C     1.81810   0.41010  -3.69570    69    65    77    64
 C     0.38310  -3.53230  -2.55620    70    43    83    71
 C    -0.07770  -2.51300  -3.37860    71    75    70    72
 C    -1.41710  -2.08170  -3.30280    72    71    73    45
 C    -1.66940  -0.69760  -3.64850    73    74    66    72
 C    -2.84440  -0.15990  -3.21900    74    73    55    47
 C     0.91000  -1.62240  -3.74430    75    86    65    71
 C    -3.63490   2.80930   0.88820    76    48    53     3
 C     2.79260  -0.50100  -3.34220    77    86    79    69
 C     4.25170  -1.21980  -1.67910    78    97    84    79
 C     3.85230  -0.17420  -2.52780    79    77    80    78
 C     3.95600   1.15130  -2.09860    80    79    99    81
 C     2.95470   2.10790  -2.50280    81    82    64    80
 C     2.73680   3.16640  -1.64130    82    61    81    98
 C     1.68650  -3.61470  -2.10550    83    85    70    92
 C     3.63510  -2.44530  -1.65250    84    85    78    90
 C     2.63910  -2.74860  -2.52870    85    83    84    86
 C     2.22580  -1.74960  -3.36620    86    85    77    75
 C     3.83840  -1.70680   1.75610    87    89    95    88
 C     2.77890  -2.51480   2.29060    88    32    87    35
 C     4.21840  -1.96750   0.43530    89    90    97    87
 C     3.60360  -2.91040  -0.33420    90    89    91    84
 C     2.59890  -3.72590   0.14410    91    90    92    35
 C     1.67990  -4.12900  -0.82220    92    28    83    91
 C     4.83110   0.27320   0.00540    93    97    94    99
 C     4.54770   0.59510   1.30190    94    93    19    95
 C     4.03520  -0.35560   2.18110    95    96    94    87
 C     3.14820   0.18040   3.08570    96    31    95    21
 C     4.67920  -0.97750  -0.40890    97    93    78    89
 C     3.34870   3.27000  -0.40490    98   100    22    82
 C     4.53430   1.32810  -0.82370    99   100    93    80
 C     4.19630   2.34070  -0.00050   100    98    99    19
