   100
C100-C2-364                                                                     
 C     1.66160   3.59930  -1.99180     1     7     2    61
 C     1.82050   2.54850  -2.87840     2     1     3    12
 C     2.98600   1.83340  -2.65030     3     4     2    60
 C     3.08270   0.52790  -2.99670     4     3     5    18
 C     2.01860  -0.13710  -3.57830     5     6     4    13
 C     2.06390  -1.49320  -3.35470     6    33     5    19
 C     0.44060   4.09240  -1.69140     7     1    66    10
 C    -0.41760  -0.31330  -3.88080     8    31    13    32
 C    -1.79340   1.68680  -3.31440     9    14    11    31
 C    -0.74070   3.63280  -2.24940    10     7    16    11
 C    -0.63790   2.50720  -3.16810    11     9    12    10
 C     0.65970   1.92930  -3.45980    12     2    11    13
 C     0.76640   0.52230  -3.81820    13     5     8    12
 C    -2.94520   2.05160  -2.57290    14    15    93     9
 C    -2.97810   3.06200  -1.65400    15    16    14   100
 C    -1.89640   3.85300  -1.45300    16    15    17    10
 C    -1.73730   4.28990  -0.12870    17    65    97    16
 C     4.03380  -0.07160  -2.15800    18    50    20     4
 C     3.02400  -2.09660  -2.54980    19    21    20     6
 C     4.00910  -1.40800  -1.86060    20    18    19    36
 C     2.43560  -3.21390  -2.05540    21    22    19    23
 C     2.77140  -3.64420  -0.83880    22    21    35    24
 C     1.16570  -3.34650  -2.52040    23    21    26    33
 C     1.79130  -4.19030  -0.04690    24    22    41    25
 C     0.49130  -4.41440  -0.47720    25    24    46    26
 C     0.15790  -3.98420  -1.81790    26    23    29    25
 C    -2.57550  -1.86290  -2.96510    27    34    28    87
 C    -1.37420  -2.52170  -3.08700    28    27    32    29
 C    -1.14400  -3.61590  -2.16590    29    30    26    28
 C    -2.11380  -3.84590  -1.19480    30    88    45    29
 C    -1.68130   0.30300  -3.66560    31    34     8     9
 C    -0.30660  -1.74830  -3.61950    32    33    28     8
 C     0.93590  -2.26230  -3.35500    33     6    32    23
 C    -2.73120  -0.53510  -3.25470    34    27    94    31
 C     3.70100  -2.97210  -0.10340    35    22    38    36
 C     4.38320  -1.82980  -0.55740    36    35    20    37
 C     4.73560  -0.83680   0.40270    37    49    40    36
 C     3.28550  -3.13450   1.18510    38    39    35    41
 C     3.53500  -2.17060   2.05750    39    38    40    42
 C     4.25810  -1.07960   1.71050    40    39    51    37
 C     2.11350  -3.83610   1.24700    41    38    24    44
 C     2.57710  -1.84000   2.99150    42    54    43    39
 C     1.37420  -2.49870   3.11450    43    42    56    44
 C     1.13550  -3.60210   2.20750    44    41    47    43
 C    -1.79570  -4.20730   0.09710    45    81    30    46
 C    -0.49530  -4.41650   0.52740    46    45    25    47
 C    -0.16530  -3.97070   1.86120    47    48    44    46
 C    -1.17310  -3.32180   2.55210    48    82    47    57
 C     4.80690   0.52270   0.03170    49    50    53    37
 C     4.46910   0.87220  -1.27070    50    18    60    49
 C     3.80640  -0.08930   2.53210    51    52    40    54
 C     3.90360   1.17210   2.17440    52    51    53    69
 C     4.43480   1.50650   0.95940    53    58    52    49
 C     2.72850  -0.51050   3.27990    54    42    51    55
 C     1.67990   0.33470   3.68210    55    54    67    68
 C     0.30670  -1.71840   3.63890    56    57    43    67
 C    -0.94090  -2.22830   3.37570    57    75    56    48
 C     3.86280   2.70230   0.62900    58    53    59    62
 C     3.59450   3.03010  -0.67590    59    61    60    58
 C     3.86750   2.06530  -1.59830    60    59    50     3
 C     2.51060   3.79990  -0.89850    61    59    64     1
 C     2.97550   3.06230   1.64630    62    63    69    58
 C     1.89130   3.85660   1.44890    63    62    64    71
 C     1.73370   4.28680   0.12010    64    66    61    63
 C    -0.53050   4.56300   0.38230    65    66    17    70
 C     0.52820   4.55880  -0.39330    66    65    64     7
 C     0.41540  -0.28100   3.89710    67    55    72    56
 C     1.79860   1.71480   3.32240    68    69    74    55
 C     2.94950   2.06570   2.58070    69    62    52    68
 C    -0.44330   4.10580   1.68310    70    80    65    71
 C     0.73550   3.64620   2.24840    71    70    63    74
 C    -0.76950   0.55110   3.83070    72    76    67    73
 C    -0.65810   1.95660   3.46440    73    79    74    72
 C     0.63930   2.52910   3.17360    74    68    73    71
 C    -2.07260  -1.46070   3.38220    75    57    76    84
 C    -2.02430  -0.10300   3.59580    76    75    77    72
 C    -3.08970   0.55110   3.00680    77    78    76    85
 C    -2.98440   1.85260   2.65420    78    77    79    98
 C    -1.81940   2.57180   2.87460    79    80    78    73
 C    -1.66960   3.61720   1.98260    80    70    79    97
 C    -2.77700  -3.65290   0.88570    81    82    91    45
 C    -2.44430  -3.19430   2.09530    82    81    84    48
 C    -4.01820  -1.39220   1.88950    83    85    84    90
 C    -3.03220  -2.07570   2.58270    84    82    83    75
 C    -4.04190  -0.05380   2.17720    85    95    83    77
 C    -4.25130  -1.09980  -1.68550    86    87    94    89
 C    -3.52850  -2.19470  -2.02710    87    88    86    27
 C    -3.28610  -3.14570  -1.13600    88    87    91    30
 C    -4.72730  -0.84370  -0.37840    89    86    96    90
 C    -4.38570  -1.83340   0.59050    90    91    83    89
 C    -3.71380  -2.98300   0.14910    91    88    81    90
 C    -4.42870   1.49290  -0.96650    92    93   100    96
 C    -3.90150   1.15410  -2.17850    93    94    92    14
 C    -3.80720  -0.10900  -2.51650    94    93    86    34
 C    -4.47420   0.87920   1.27840    95    85    98    96
 C    -4.80110   0.52380  -0.02340    96    95    92    89
 C    -2.52100   3.80960   0.89290    97    99    17    80
 C    -3.86580   2.07470   1.59790    98    99    95    78
 C    -3.60040   3.03010   0.66240    99    97    98   100
 C    -3.86410   2.69630  -0.63930   100    92    99    15
