   100
C100-Cs-294                                                                     
 C    -4.13800   0.67490   1.91800     1    24     3    51
 C    -3.93120   2.65540   0.75930     2     4    63     3
 C    -4.52310   1.40820   0.80620     3     2     1    14
 C    -3.54700   3.23720  -0.42820     4     5     6     2
 C    -3.66800   2.52810  -1.54710     5     4    13     7
 C    -2.48140   4.04550  -0.25580     6     4    75     9
 C    -2.64400   2.54260  -2.47490     7    19     8     5
 C    -1.52010   3.32220  -2.35310     8     7    21     9
 C    -1.45070   4.18470  -1.20050     9    11     6     8
 C     0.89560   4.16300  -1.39460    10    11   100    22
 C    -0.20410   4.53580  -0.69130    11    10     9    12
 C    -0.00310   4.56010   0.69660    12    74    98    11
 C    -4.28360   1.32190  -1.54010    13     5    16    14
 C    -4.78960   0.68780  -0.38470    14    13    15     3
 C    -4.78820  -0.72760  -0.37530    15    18    14    23
 C    -3.69160   0.63090  -2.55390    16    17    13    19
 C    -3.69380  -0.67610  -2.54570    17    16    18    34
 C    -4.28660  -1.36990  -1.53090    18    25    17    15
 C    -2.62800   1.32100  -3.08470    19     7    16    20
 C    -1.47120   0.69650  -3.59180    20    19    32    33
 C    -0.34430   2.78300  -2.96600    21    22     8    32
 C     0.83120   3.30900  -2.49480    22    90    21    10
 C    -4.51670  -1.42750   0.82730    23    27    24    15
 C    -4.13050  -0.68110   1.92900    24     1    23    43
 C    -3.66170  -2.56830  -1.54060    25    26    18    28
 C    -3.53850  -3.25460  -0.40720    26    25    29    27
 C    -3.92230  -2.67390   0.77910    27    26    41    23
 C    -2.63630  -2.57780  -2.46840    28    34    31    25
 C    -2.45590  -4.04640  -0.23830    29    26    40    30
 C    -1.43230  -4.18960  -1.18850    30    47    29    31
 C    -1.50200  -3.34120  -2.34890    31    28    36    30
 C    -0.26350   1.44540  -3.55600    32    20    37    21
 C    -1.47130  -0.73070  -3.58970    33    34    39    20
 C    -2.62620  -1.35740  -3.08100    34    28    17    33
 C     0.84910  -3.32590  -2.47740    35    97    36    46
 C    -0.32600  -2.80310  -2.95870    36    35    31    39
 C     1.00610   0.72130  -3.60640    37    91    38    32
 C     1.01200  -0.73760  -3.60400    38    96    37    39
 C    -0.25450  -1.46660  -3.55330    39    33    38    36
 C    -2.19690  -4.00130   1.10570    40    44    41    29
 C    -3.01420  -3.11560   1.72000    41    40    27    42
 C    -2.52800  -2.29900   2.74300    42    43    41    49
 C    -3.13580  -1.09110   2.81870    43    42    50    24
 C    -0.96600  -4.17830   1.54920    44    40    45    48
 C     0.02190  -4.53520   0.70470    45    44    68    47
 C     0.92700  -4.17460  -1.37350    46    47    69    35
 C    -0.18110  -4.53150  -0.68220    47    46    30    45
 C    -0.45550  -3.41470   2.57120    48    52    44    49
 C    -1.17590  -2.39160   3.16830    49    48    42    55
 C    -2.47530   0.00910   3.30520    50    43    51    56
 C    -3.14330   1.10340   2.80590    51    62    50     1
 C     0.89440  -3.40880   2.42170    52    48    53    68
 C     1.69370  -2.39060   2.90600    53    52    66    54
 C     1.01710  -1.24480   3.51450    54    58    55    53
 C    -0.42700  -1.24400   3.62800    55    56    49    54
 C    -1.11700   0.01600   3.69890    56    50    60    55
 C     3.00320   0.01660   2.98440    57    67    77    58
 C     1.70120   0.02080   3.49930    58    57    54    59
 C     1.01130   1.28410   3.50740    59    58    60    71
 C    -0.43330   1.27780   3.61880    60    56    61    59
 C    -1.18710   2.41860   3.14760    61    73    62    60
 C    -2.53900   2.31380   2.72020    62    51    63    61
 C    -3.02690   3.12310   1.69210    63    75     2    62
 C     4.16800  -2.50080   0.19440    64    83    88    65
 C     3.30470  -3.09190   1.12690    65    70    64    66
 C     2.97450  -2.30430   2.29790    66    67    53    65
 C     3.62530  -1.09640   2.42760    67    84    66    57
 C     1.20780  -4.16070   1.29190    68    70    45    52
 C     2.15040  -3.99220  -0.79220    69    86    46    70
 C     2.34540  -3.94750   0.59230    70    68    65    69
 C     1.67960   2.42970   2.89210    71    72    78    59
 C     0.87580   3.44300   2.40740    72    73    71    98
 C    -0.47680   3.44910   2.54840    73    72    74    61
 C    -0.99880   4.22170   1.53610    74    75    12    73
 C    -2.22300   4.03020   1.08940    75    74    63     6
 C     4.56170   0.68890   1.55180    76    84    79    77
 C     3.61120   1.13820   2.42720    77    76    78    57
 C     2.96040   2.34460   2.28460    78    77    71    81
 C     4.78870   1.36020   0.39650    79    80    76    85
 C     4.14000   2.51530   0.18190    80    79    92    81
 C     3.28390   3.12350   1.10740    81    99    80    78
 C     4.89890  -0.65450  -0.76810    82    85    87    83
 C     4.81780  -1.34580   0.41560    83    64    84    82
 C     4.58370  -0.65900   1.55300    84    76    83    67
 C     4.89090   0.67030  -0.78630    85    82    93    79
 C     2.85040  -3.18380  -1.61210    86    88    69    97
 C     4.20230  -1.32760  -1.73140    87    88    82    95
 C     3.87760  -2.50890  -1.15790    88    86    87    64
 C     2.82780   3.18370  -1.62560    89    92   100    90
 C     2.02780   2.67420  -2.61960    90    22    89    91
 C     2.20550   1.39130  -3.15840    91    90    94    37
 C     3.86030   2.51540  -1.17290    92    89    93    80
 C     4.20270   1.33720  -1.75160    93    92    85    94
 C     3.37590   0.70140  -2.72120    94    95    93    91
 C     3.37600  -0.70240  -2.71520    95    94    96    87
 C     2.21060  -1.40170  -3.15030    96    97    95    38
 C     2.04370  -2.68220  -2.60630    97    35    86    96
 C     1.18760   4.19300   1.27550    98    99    12    72
 C     2.32190   3.97250   0.57440    99    98    81   100
 C     2.12170   3.99300  -0.80920   100    89    10    99
