   100
C100-C1-357                                                                     
 C    -3.52160  -2.84860  -0.87930     1    63     2     4
 C    -4.38210  -1.87120  -0.35290     2     3    49     1
 C    -4.68200  -0.71460  -0.99790     3     6     2    28
 C    -2.88750  -2.55480  -2.14250     4     5     8     1
 C    -3.21400  -1.34020  -2.72450     5     6    12     4
 C    -4.10970  -0.45550  -2.18130     6     3    20     5
 C    -1.05370  -3.93930  -1.53990     7    16     8    62
 C    -1.59900  -3.06150  -2.46670     8     7     4    10
 C     0.75480  -2.61070  -3.13980     9    13    14    10
 C    -0.65080  -2.33010  -3.28440    10     9    11     8
 C    -1.03630  -1.01640  -3.75730    11    12    23    10
 C    -2.31850  -0.59980  -3.46750    12    11     5    21
 C     1.64560  -1.60900  -3.49460    13   100    22     9
 C     1.26060  -3.54530  -2.18540    14    16     9    15
 C     2.57160  -3.38590  -1.61530    15    99    17    14
 C     0.29360  -4.15600  -1.40600    16    69     7    14
 C     2.69210  -3.74400  -0.25510    17    68    96    15
 C    -3.09980   2.88950  -1.80940    18    29    19    26
 C    -4.02450   1.87590  -1.68880    19    18    20    27
 C    -3.77790   0.80990  -2.53180    20     6    19    21
 C    -2.66370   0.73360  -3.34850    21    25    12    20
 C     1.23130  -0.34270  -3.87430    22    40    23    13
 C    -0.08440   0.03150  -3.98770    23    22    11    24
 C    -0.39100   1.43570  -3.77420    24    25    23    42
 C    -1.72500   1.74140  -3.44400    25    21    26    24
 C    -2.00210   2.84270  -2.65380    26    44    25    18
 C    -4.56130   1.61060  -0.40410    27    28    31    19
 C    -4.87230   0.30460  -0.08970    28     3    27    48
 C    -2.70950   3.64470  -0.74500    29    30    32    18
 C    -3.17530   3.34600   0.47790    30    29    31    33
 C    -4.06660   2.34320   0.66330    31    30    27    46
 C    -1.43980   4.09990  -0.91370    32    29    35    44
 C    -2.33770   3.45910   1.54940    33    30    34    51
 C    -1.05860   3.98490   1.45460    34    33    59    35
 C    -0.57620   4.35570   0.13920    35    32    38    34
 C     2.53380   3.38640  -1.53620    36    45    88    37
 C     1.25080   3.91370  -1.47550    37    36    43    38
 C     0.78990   4.33430  -0.16860    38    39    35    37
 C     1.63970   4.09250   0.90400    39    89    58    38
 C     2.24230   0.53520  -3.58490    40    22    92    41
 C     1.98390   1.86290  -3.29240    41    40    45    42
 C     0.66170   2.34690  -3.34140    42    41    43    24
 C     0.32460   3.43990  -2.44890    43    44    37    42
 C    -0.99730   3.62180  -2.13940    44    43    26    32
 C     2.90930   2.41560  -2.41890    45    36    41    95
 C    -3.78490   1.78880   1.90390    46    47    51    31
 C    -4.03360   0.47290   2.19330    47    46    48    54
 C    -4.65440  -0.24140   1.16260    48    49    28    47
 C    -4.42360  -1.56800   0.98810    49    50    48     2
 C    -3.63470  -2.22250   1.83370    50    49    64    55
 C    -2.70800   2.46130   2.44380    51    46    52    33
 C    -1.79960   1.86980   3.31270    52    51    60    53
 C    -1.98850   0.46860   3.62620    53    54    52    57
 C    -3.12260  -0.19610   3.06120    54    55    47    53
 C    -2.98500  -1.56630   2.85740    55    71    50    54
 C     0.38690   0.33780   4.03360    56    61    57    72
 C    -0.81590  -0.32550   3.95290    57    56    70    53
 C     1.17790   3.69420   2.13700    58    82    39    59
 C    -0.16530   3.55030   2.44320    59    58    34    60
 C    -0.52790   2.48140   3.34370    60    61    52    59
 C     0.51960   1.68080   3.77550    61    83    56    60
 C    -1.64570  -4.17390  -0.30130    62    63    67     7
 C    -2.82630  -3.61530   0.06500    63    62    64     1
 C    -2.88670  -3.26400   1.41770    64    50    65    63
 C    -1.80670  -3.36160   2.26780    65    66    64    71
 C    -0.64000  -3.95050   1.91370    66    65    67    75
 C    -0.62290  -4.41820   0.59510    67    69    62    66
 C     1.67330  -4.22520   0.48150    68    69    17    76
 C     0.51900  -4.49560  -0.09810    69    68    67    16
 C    -0.69850  -1.72200   3.67070    70    71    57    74
 C    -1.84210  -2.28290   3.13090    71    55    65    70
 C     1.63010  -0.25770   3.80770    72    73    86    56
 C     1.78300  -1.57810   3.44290    73    72    78    74
 C     0.57140  -2.36020   3.37950    74    75    73    70
 C     0.56360  -3.49790   2.50220    75    76    66    74
 C     1.71840  -3.72260   1.76750    76    79    68    75
 C     3.85610  -0.80950   2.22700    77    80    85    78
 C     2.95360  -1.85450   2.66280    78    79    73    77
 C     2.84820  -2.96480   1.83750    79    76    96    78
 C     4.49160  -0.98950   0.98430    80    97    90    77
 C     3.22040   2.77970   1.83200    81    82    89    84
 C     2.15710   2.90150   2.66540    82    83    81    58
 C     1.82070   1.88940   3.45260    83    82    61    86
 C     4.00640   1.62010   1.74900    84    81    91    85
 C     3.63200   0.52830   2.60810    85    86    77    84
 C     2.52590   0.72670   3.43260    86    83    72    85
 C     4.19370   2.18920  -0.59640    87    88    95    91
 C     3.35040   3.24540  -0.44280    88    89    87    36
 C     2.89380   3.56350   0.75700    89    88    39    81
 C     4.79250   0.04860   0.12790    90    91    80    93
 C     4.55960   1.35590   0.47320    91    90    87    84
 C     3.30290  -0.17460  -3.05930    92    94   100    40
 C     4.65090  -0.42480  -1.17880    93    94    98    90
 C     4.18640   0.39640  -2.17520    94    95    93    92
 C     3.96810   1.70110  -1.86850    95    94    87    45
 C     3.48250  -3.05140   0.61930    96    97    17    79
 C     4.27050  -2.08060   0.19550    97    96    98    80
 C     4.29610  -1.75120  -1.12720    98    97    93    99
 C     3.41830  -2.35420  -2.03800    99   100    15    98
 C     2.92730  -1.49970  -2.99410   100    99    92    13
