   100
C100-C1-441                                                                     
 C    -1.51150  -3.89450   1.53680     1     2     5    59
 C    -0.71910  -4.30520   0.50530     2     1    55    11
 C    -2.91120  -1.96380   2.86640     3     4     6    60
 C    -3.48030  -2.55310   1.81500     4     3     5    21
 C    -2.78140  -3.50240   1.13650     5     4     9     1
 C    -3.16280  -0.66170   3.13130     6     3    74     7
 C    -3.99690   0.10420   2.31760     7     8     6    20
 C    -3.65260   1.42640   2.30000     8     7    96    75
 C    -3.17110  -3.39410  -0.18410     9    15     5    10
 C    -2.30500  -3.67040  -1.23110    10    11     9    16
 C    -1.10430  -4.19310  -0.83000    11    12    10     2
 C     0.01620  -4.06170  -1.57050    12    11    24    13
 C     0.03230  -3.29970  -2.73580    13    14    12    17
 C     1.27070  -2.79290  -3.01860    14    13    43    25
 C    -4.09120  -2.39120  -0.23890    15    18    21     9
 C    -2.32930  -2.86270  -2.40460    16    19    10    17
 C    -1.12970  -2.60720  -3.15200    17    13    16    41
 C    -4.15960  -1.64740  -1.33950    18    15    22    19
 C    -3.30710  -1.87100  -2.39600    19    39    18    16
 C    -4.56960  -0.46120   1.15210    20    21     7    23
 C    -4.29190  -1.82440   0.98140    21    15     4    20
 C    -4.48470  -0.31870  -1.25110    22    18    92    23
 C    -4.70520   0.34910  -0.02720    23    22    97    20
 C     1.10950  -4.18260  -0.71720    24    26    55    12
 C     2.38720  -3.03540  -2.24090    25    27    14    26
 C     2.33980  -3.69470  -1.01670    26    24    25    46
 C     3.25480  -2.02170  -2.46190    27    28    25    32
 C     4.14770  -1.68230  -1.53740    28    27    30    45
 C     3.89170   1.82570  -1.61810    29    31    38    53
 C     4.54470  -0.38760  -1.42450    30    28    51    31
 C     3.97820   0.60360  -2.23190    31    29    30    36
 C     2.67010  -1.08410  -3.27880    32    43    27    36
 C    -0.43450   1.43800  -3.89280    33    87    34    44
 C     0.67040   0.62370  -3.99830    34    33    42    35
 C     1.92710   1.17840  -3.53370    35    36    34    37
 C     2.97630   0.27370  -3.18470    36    32    31    35
 C     1.90840   2.47650  -2.88310    37    38    88    35
 C     2.88820   2.72300  -1.92750    38    29    80    37
 C    -3.15830  -0.68180  -3.03390    39    19    40    92
 C    -2.00550  -0.38670  -3.73920    40    44    39    41
 C    -0.94810  -1.32250  -3.82290    41    40    42    17
 C     0.38580  -0.78860  -4.01320    42    43    34    41
 C     1.44210  -1.57780  -3.64340    43    42    32    14
 C    -1.72750   0.95710  -3.79250    44    40    33    94
 C     4.12900  -2.30460  -0.31080    45    48    28    46
 C     3.18160  -3.28400   0.02800    46    26    45    47
 C     2.65940  -3.26770   1.36920    47    50    54    46
 C     4.59920  -1.37840   0.55900    48    49    45    51
 C     4.10700  -1.37100   1.80830    49    48    68    50
 C     3.15270  -2.26990   2.20070    50    49    56    47
 C     4.87600  -0.19450  -0.09230    51    52    48    30
 C     4.71570   1.01770   0.53830    52    51    53    67
 C     4.26550   2.03570  -0.29370    53    81    52    29
 C     1.34850  -3.72200   1.66410    54    55    47    58
 C     0.64210  -4.25140   0.57940    55     2    24    54
 C     2.37770  -1.65390   3.16100    56    57    50    61
 C     1.07950  -2.01190   3.44870    57    56    65    58
 C     0.54050  -3.14810   2.72330    58    59    54    57
 C    -0.87760  -3.27770   2.64590    59    60     1    58
 C    -1.64350  -2.30120   3.27290    60    66     3    59
 C     2.84880  -0.35930   3.30850    61    63    56    68
 C     2.37150   1.89740   3.14650    62    70    63    69
 C     2.01330   0.67660   3.68850    63    62    61    64
 C     0.67180   0.41840   4.02130    64    63    65    72
 C     0.23660  -0.96350   3.96430    65    66    57    64
 C    -1.11180  -1.18270   3.86410    66    65    60    74
 C     4.25100   1.01950   1.87370    67    69    68    52
 C     3.93380  -0.18950   2.45950    68    49    67    61
 C     3.43450   2.05760   2.27020    69    82    67    62
 C     1.43060   2.86350   2.86370    70    71    62    85
 C     0.10240   2.71840   3.18900    71    70    77    72
 C    -0.30780   1.48810   3.83480    72    73    71    64
 C    -1.67170   1.14290   3.72460    73    74    75    72
 C    -2.04360  -0.17220   3.77870    74    73    66     6
 C    -2.54180   1.93180   2.99540    75    78    73     8
 C    -0.32640   4.18680   1.21580    76    79    84    77
 C    -0.79770   3.48520   2.38760    77    78    71    76
 C    -2.11570   3.05170   2.35270    78    75    95    77
 C    -1.21940   4.30830   0.15520    79    98    90    76
 C     2.65620   3.50800  -0.80430    80    81    83    38
 C     3.49810   3.05430   0.16650    81    82    53    80
 C     3.09480   3.08320   1.44610    82    81    85    69
 C     1.43950   4.11970  -0.53090    83    80    91    84
 C     1.03050   4.17860   0.85840    84    85    76    83
 C     1.88410   3.59490   1.77630    85    82    84    70
 C    -1.67930   2.94780  -2.89510    86    89    94    87
 C    -0.40760   2.68600  -3.31390    87    86    33    88
 C     0.72170   3.22380  -2.71660    88    87    37    91
 C    -1.89870   3.72050  -1.83650    89    86    90    99
 C    -0.82970   4.24280  -1.16380    90    89    79    91
 C     0.48470   4.05420  -1.55690    91    90    83    88
 C    -3.91720   0.28080  -2.34710    92    93    22    39
 C    -3.60410   1.60760  -2.35440    93    92    94   100
 C    -2.50780   1.90780  -3.15690    94    86    44    93
 C    -2.95760   3.23560   1.29300    95    98    78    96
 C    -3.87320   2.21880   1.20240    96    95     8    97
 C    -4.36130   1.72740  -0.02240    97    96    23   100
 C    -2.51170   3.84620   0.20560    98    95    99    79
 C    -2.95400   3.44420  -1.01230    99    98    89   100
 C    -3.84470   2.37770  -1.19340   100    99    93    97
