   100
C100-C1-416                                                                     
 C    -4.84110   0.70100  -0.30030     1     5    30    59
 C    -3.45500  -2.99590   0.44500     2    63     3     7
 C    -4.30960  -1.97290   0.12610     3     2     4    57
 C    -4.52480  -1.08020   1.17410     4     5     9     3
 C    -4.78110   0.25180   0.95400     5     1    21     4
 C    -1.62900  -3.78570   1.51500     6     7    66    10
 C    -2.78480  -3.08950   1.67920     7     6     8     2
 C    -2.89020  -2.13750   2.64510     8     7     9    12
 C    -3.82910  -1.15650   2.36740     9    22     4     8
 C    -0.44160  -3.59340   2.25450    10     6    17    11
 C    -0.46340  -2.53070   3.22170    11    10    12    14
 C    -1.71360  -1.83650   3.39470    12    24     8    11
 C     2.00040  -2.33360   2.94360    13    15    16    14
 C     0.78620  -1.85520   3.53550    14    13    11    25
 C     3.06820  -1.42820   2.84140    15    39    93    13
 C     1.98580  -3.39270   1.98630    16    17    18    13
 C     0.76430  -3.98350   1.62190    17    16    10    19
 C     3.00270  -3.35990   0.99570    18    92   100    16
 C     0.65790  -4.41990   0.27750    19    65    96    17
 C    -2.59240   0.42570   3.49690    20    22    26    24
 C    -4.21590   1.01910   1.93910    21    22     5    28
 C    -3.67690   0.12140   2.80010    22    20    21     9
 C    -0.47280   0.15600   4.01980    23    24    25    32
 C    -1.64020  -0.50950   3.80900    24    23    20    12
 C     0.75510  -0.45160   3.93420    25    23    40    14
 C    -2.01010   1.65460   3.37870    26    20    32    27
 C    -2.48270   2.62710   2.49180    27    26    35    28
 C    -3.64210   2.27920   1.71510    28    21    29    27
 C    -3.75550   2.75110   0.39220    29    31    30    28
 C    -4.33860   1.94790  -0.58870    30     1    45    29
 C    -2.75680   3.57370  -0.05730    31    29    36    43
 C    -0.70140   1.51490   3.75220    32    26    33    23
 C     0.28680   2.38530   3.36580    33    32    41    34
 C    -0.09630   3.44330   2.45440    34    38    35    33
 C    -1.47370   3.50570   2.01320    35    36    27    34
 C    -1.69480   3.98250   0.71630    36    55    31    35
 C     2.22660   3.48570   1.77190    37    42    80    38
 C     0.93130   3.96060   1.60140    38    37    54    34
 C     2.97760  -0.11140   3.21320    39    15    86    40
 C     1.82310   0.45340   3.72300    40    39    25    41
 C     1.59600   1.85340   3.43350    41    42    33    40
 C     2.55200   2.48770   2.65200    42    87    37    41
 C    -2.32040   3.55930  -1.38420    43    48    44    31
 C    -2.79230   2.67090  -2.31790    44    43    45    52
 C    -3.85190   1.89800  -1.88000    45    46    30    44
 C    -4.04370   0.62130  -2.31130    46    47    59    45
 C    -3.15410   0.10260  -3.16010    47    46    60    53
 C    -1.04830   4.01340  -1.42120    48    43    50    55
 C     1.16660   3.75410  -1.98280    49    50    67    56
 C    -0.13240   3.60020  -2.37960    50    49    48    51
 C    -0.49140   2.56540  -3.29060    51    52    50    69
 C    -1.84750   2.13680  -3.24640    52    53    51    44
 C    -2.09120   0.82370  -3.62670    53    47    71    52
 C     0.61440   4.38550   0.28780    54    55    56    38
 C    -0.67470   4.34390  -0.11800    55    54    36    48
 C     1.54680   4.18270  -0.72030    56    81    49    54
 C    -4.31130  -1.51160  -1.21250    57    59     3    58
 C    -3.38550  -2.08790  -2.14980    58    60    62    57
 C    -4.62280  -0.15280  -1.35700    59    46     1    57
 C    -2.83360  -1.22370  -3.10220    60    47    72    58
 C    -1.25410  -3.34280  -2.42620    61    64    75    62
 C    -2.54680  -3.16290  -1.80910    62    63    58    61
 C    -2.66350  -3.60720  -0.48180    63    66     2    62
 C    -0.29540  -4.03640  -1.71220    64    79    65    61
 C    -0.50160  -4.42750  -0.40880    65    66    19    64
 C    -1.62940  -4.16620   0.19350    66    65    63     6
 C     2.17290   2.95950  -2.46200    67    49    68    83
 C     1.88430   1.90520  -3.30700    68    67    76    69
 C     0.55540   1.64860  -3.72490    69    68    70    51
 C     0.22230   0.27130  -4.01920    70    71    73    69
 C    -1.10710  -0.07230  -3.95050    71    53    70    72
 C    -1.56210  -1.34720  -3.63130    72    75    60    71
 C     1.14610  -0.80890  -3.83640    73    77    70    74
 C     0.70420  -2.14390  -3.47950    74    78    75    73
 C    -0.70980  -2.38740  -3.34110    75    72    61    74
 C     2.78430   0.86230  -3.18950    76    77    68    84
 C     2.43060  -0.44070  -3.44560    77    97    76    73
 C     1.62060  -2.96130  -2.73130    78    79    98    74
 C     1.04580  -3.88120  -1.85870    79    64    96    78
 C     3.15490   3.39330   0.74430    80    81    90    37
 C     2.78480   3.70090  -0.49710    81    80    56    83
 C     4.07300   1.87410  -1.38320    82    84    83    89
 C     3.21240   2.94450  -1.54500    83    81    82    67
 C     3.84920   0.85110  -2.27910    84    94    82    76
 C     4.48070  -0.23180   1.54580    85    93    86    88
 C     3.88040   0.59140   2.44810    86    87    85    39
 C     3.66740   1.86340   2.16310    87    86    90    42
 C     4.80680   0.18480   0.23090    88    95    85    89
 C     4.54020   1.55070  -0.07770    89    90    82    88
 C     4.02500   2.36360   0.94950    90    87    80    89
 C     4.27130  -2.09650  -0.37280    91    92    99    95
 C     3.97560  -2.41470   0.93430    92    93    18    91
 C     4.04010  -1.48060   1.85910    93    92    85    15
 C     4.14700  -0.44590  -1.99230    94    84    95    97
 C     4.65010  -0.81750  -0.75810    95    94    91    88
 C     1.62650  -4.21310  -0.65170    96   100    19    79
 C     3.28650  -1.24910  -2.73800    97    98    77    94
 C     2.90990  -2.50420  -2.35690    98    97    99    78
 C     3.47460  -2.91240  -1.14800    99   100    91    98
 C     2.78860  -3.72030  -0.30260   100    96    99    18
