   100
C100-C1-141                                                                     
 C     0.08710  -3.40660  -2.50550     1    10    69     2
 C     0.97540  -2.47630  -3.05670     2     1     3    11
 C     2.30610  -2.55890  -2.55810     3     4    70     2
 C     3.16590  -1.46360  -2.64920     4     3     5     7
 C     4.21240  -1.38650  -1.68570     5     6    46     4
 C     4.78130  -0.23090  -1.28460     6     9     5    18
 C     2.65720  -0.24210  -3.19180     7     8     4    12
 C     3.34560   0.90360  -2.75870     8    24     9     7
 C     4.37830   0.90860  -1.84460     9     6    19     8
 C    -1.25410  -3.26470  -2.48910    10     1    14    77
 C     0.40390  -1.25190  -3.57950    11    12     2    15
 C     1.27060  -0.09820  -3.61670    12    11     7    27
 C    -3.11700  -1.93260  -2.49470    13    95    14    78
 C    -1.85750  -2.15620  -3.03300    14    10    13    15
 C    -1.04830  -1.08550  -3.55980    15    14    25    11
 C     4.90840   0.82970   0.80110    16    18    31    17
 C     4.56920   2.01160   0.21530    17    19    16    39
 C     5.06840  -0.28930   0.06120    18    16    45     6
 C     4.32420   2.05220  -1.11860    19    20     9    17
 C     3.34210   2.82200  -1.59700    20    19    21    24
 C     2.61060   3.66560  -0.78540    21    22    20    38
 C     1.41160   3.98800  -1.30940    22    21    40    23
 C     0.86820   3.37370  -2.44130    23   100    28    22
 C     2.74480   2.12040  -2.66280    24     8    28    20
 C    -1.64780   0.23350  -3.54740    25    26    15    96
 C    -0.78140   1.38880  -3.53970    26    25    99    27
 C     0.65890   1.22590  -3.58400    27    28    26    12
 C     1.45990   2.30530  -3.07300    28    24    23    27
 C     2.71130  -0.39960   3.26430    29    30    50    35
 C     3.84240  -0.48890   2.49500    30    29    31    44
 C     4.27450   0.74060   1.99910    31    16    32    30
 C     3.56310   1.92490   2.17280    32    39    34    31
 C     1.40400   2.94880   2.63100    33    34    37    42
 C     2.40710   1.99430   2.91630    34    32    35    33
 C     2.03250   0.79250   3.49020    35    64    34    29
 C    -0.97800   3.32400   2.49720    36    43    65    37
 C     0.06570   2.65500   3.09850    37    36    63    33
 C     2.75360   3.58600   0.63760    38    39    21    42
 C     3.74160   2.71400   1.06110    39    32    17    38
 C     0.38700   4.41320  -0.53990    40    22    91    41
 C     0.43320   4.32570   0.85180    41    43    40    42
 C     1.59300   3.79930   1.45630    42    41    38    33
 C    -0.80720   4.14350   1.40850    43    41    36    94
 C     4.03100  -1.68530   1.76940    44    30    45    47
 C     4.66910  -1.50250   0.51900    45    18    46    44
 C     4.27220  -2.20600  -0.58210    46    49    45     5
 C     3.06060  -2.73120   1.88770    47    48    51    44
 C     2.85680  -3.50070   0.74700    48    55    49    47
 C     3.41740  -3.17880  -0.47210    49    46    70    48
 C     1.79680  -1.42220   3.39600    50    29    57    51
 C     1.90480  -2.63380   2.72670    51    50    47    53
 C    -0.57120  -2.76600   2.99460    52    56    59    53
 C     0.66780  -3.32830   2.49110    53    51    54    52
 C     0.58630  -4.16850   1.32580    54    55    74    53
 C     1.69220  -4.14820   0.49040    55    48    71    54
 C    -1.75700  -3.16370   2.38910    56    73    62    52
 C     0.59150  -0.86570   3.77710    57    59    64    50
 C    -1.78400  -0.62160   3.58790    58    61    59    67
 C    -0.62670  -1.47740   3.62020    59    57    52    58
 C    -3.89740  -0.29790   2.41310    60    68    61    86
 C    -2.95480  -1.14710   2.97550    61    62    60    58
 C    -2.90280  -2.39970   2.39100    62    56    61    79
 C    -0.29710   1.39000   3.68720    63    64    67    37
 C     0.74220   0.50390   3.82290    64    35    63    57
 C    -2.27310   2.85780   2.47890    65    36    66    87
 C    -2.62710   1.63470   3.02840    66    68    65    67
 C    -1.61900   0.83060   3.61580    67    66    63    58
 C    -3.73990   1.05710   2.43670    68    60    66    90
 C     0.38550  -4.21590  -1.43260    69    71    72     1
 C     2.53080  -3.43890  -1.46270    70    71    49     3
 C     1.56270  -4.15300  -0.88530    71    69    70    55
 C    -0.70940  -4.44990  -0.69160    72    69    77    74
 C    -1.80110  -3.97620   1.28050    73    74    56    75
 C    -0.65450  -4.42800   0.70980    74    73    72    54
 C    -2.93940  -3.65370   0.56820    75    79    73    76
 C    -2.93740  -3.62620  -0.81560    76    77    78    75
 C    -1.77430  -3.97490  -1.40080    77    76    72    10
 C    -3.65270  -2.64150  -1.41650    78    76    81    13
 C    -3.66300  -2.73100   1.27350    79    75    80    62
 C    -4.50040  -1.82930   0.66470    80    86    79    81
 C    -4.47040  -1.79660  -0.72450    81    78    83    80
 C    -4.82600   0.56340  -0.78900    82    83    84    85
 C    -4.55230  -0.61840  -1.41740    83    82    81    95
 C    -4.27740   1.66830  -1.37640    84    82    88    97
 C    -4.88220   0.53930   0.60040    85    86    90    82
 C    -4.65090  -0.62140   1.28780    86    80    85    60
 C    -2.92350   3.40050   1.37810    87    94    89    65
 C    -3.91810   2.76930  -0.63690    88    92    84    89
 C    -3.95570   2.74950   0.75210    89    90    87    88
 C    -4.39240   1.59620   1.33000    90    89    85    68
 C    -0.77370   4.24360  -1.25730    91    93    40   100
 C    -2.91810   3.41070  -1.31780    92    93    88    98
 C    -1.98520   4.16360  -0.66790    93    91    92    94
 C    -1.99080   4.13870   0.70350    94    87    93    43
 C    -3.66820  -0.69810  -2.49740    95    13    96    83
 C    -2.99010   0.38530  -3.02120    96    95    97    25
 C    -3.40030   1.58260  -2.46140    97    98    96    84
 C    -2.58150   2.65140  -2.43650    98    97    99    92
 C    -1.31320   2.60940  -2.97600    99   100    98    26
 C    -0.45970   3.52170  -2.39960   100    23    99    91
