   100
C100-C1-311                                                                     
 C     2.62220   3.53670   1.57200     1     9     2     3
 C     3.10850   2.53520   2.33630     2     4     1    20
 C     3.03700   3.65810   0.28630     3    56     1     8
 C     4.06370   1.74300   1.86880     4     2     5    59
 C     4.05320   0.43930   2.21730     5     4    64    18
 C     0.82880   4.36420  -0.36270     6     8    26     7
 C     0.41840   4.28570   1.02500     7     9    11     6
 C     2.12070   3.96940  -0.66430     8     3     6    33
 C     1.34370   3.77810   1.91170     9     1     7    21
 C    -1.25650   3.21840   2.48140    10    13    24    11
 C    -0.91380   4.07620   1.36740    11    12     7    10
 C    -1.82890   4.14670   0.32500    12    15    25    11
 C    -2.50490   2.64730   2.44700    13   100    10    14
 C    -3.40740   2.83550   1.42330    14    15    52    13
 C    -3.05570   3.54210   0.35940    15    14    31    12
 C     3.54860  -2.15430   1.80060    16    78    63    17
 C     2.78620  -1.52790   2.82560    17    18    16    93
 C     3.04110  -0.15010   3.02940    18    17     5    19
 C     1.98640   0.69840   3.49750    19    20    18    22
 C     2.09460   2.04860   3.11710    20     2    21    19
 C     1.01250   2.87090   2.92010    21    24    20     9
 C     0.67710   0.20240   3.80010    22    19    94    23
 C    -0.46210   1.13730   3.71670    23    99    24    22
 C    -0.26060   2.48600   3.20020    24    21    10    23
 C    -1.43840   4.17360  -0.99640    25    28    12    26
 C    -0.10720   4.18040  -1.38580    26    25     6    27
 C     0.23810   3.40800  -2.55580    27    30    32    26
 C    -2.43900   3.54710  -1.68660    28    29    31    25
 C    -2.10510   2.82510  -2.75470    29    28    46    30
 C    -0.80600   2.73500  -3.15880    30    29    34    27
 C    -3.45550   3.13170  -0.87840    31    28    15    51
 C     1.52100   2.83280  -2.71980    32    33    27    36
 C     2.46610   3.21810  -1.79090    33    32    55     8
 C    -0.65680   1.50790  -3.75530    34    30    35    39
 C     0.54910   0.85460  -3.85160    35    34    43    36
 C     1.72250   1.55120  -3.36290    36    37    32    35
 C     2.88300   0.78050  -3.00170    37    38    54    36
 C     2.76810  -0.59210  -3.15890    38    60    44    37
 C    -1.87620   0.86070  -3.66850    39    41    34    46
 C    -3.05990  -0.96790  -2.92470    40    69    41    50
 C    -1.96190  -0.51110  -3.63110    41    39    40    42
 C    -0.79870  -1.29460  -3.74060    42    41    43    71
 C     0.45620  -0.57490  -3.90710    43    44    35    42
 C     1.61120  -1.23230  -3.57430    44    73    43    38
 C    -3.84330   1.24070  -2.25790    45    50    46    51
 C    -2.78630   1.69110  -3.03850    46    29    39    45
 C    -4.55790  -0.91730   1.12710    47    85    91    48
 C    -4.80760  -0.15830  -0.01440    48    49    47    53
 C    -4.45470  -0.81560  -1.18740    49    50    48    87
 C    -3.95530  -0.13000  -2.25430    50    49    45    40
 C    -4.21000   1.96640  -1.09420    51    31    45    53
 C    -4.20970   1.74820   1.30020    52    14    89    53
 C    -4.65340   1.24870   0.05400    53    52    48    51
 C     3.84470   1.22090  -2.03780    54    55    37    57
 C     3.58890   2.47360  -1.47990    55    56    33    54
 C     3.96150   2.80460  -0.20380    56    59     3    55
 C     4.56370   0.27530  -1.21340    57    61    58    54
 C     4.84050   0.66420   0.11490    58    59    64    57
 C     4.53060   1.88060   0.58460    59    58    56     4
 C     3.49510  -1.49190  -2.40560    60    65    61    38
 C     4.35200  -1.09800  -1.40050    61    60    57    62
 C     4.33780  -1.95540  -0.28820    62    63    68    61
 C     4.40940  -1.46450   0.97930    63    64    62    16
 C     4.66720  -0.20390   1.17510    64    63     5    58
 C     2.77450  -2.66530  -2.35990    65    67    60    73
 C     1.69660  -4.19850  -1.00470    66    67    76    74
 C     2.82740  -3.50620  -1.28060    67    66    68    65
 C     3.57770  -3.08460  -0.22190    68    62    67    78
 C    -3.04270  -2.18110  -2.28660    69    40    87    70
 C    -1.95660  -3.04530  -2.35390    70    69    81    71
 C    -0.80460  -2.62180  -3.13800    71    72    70    42
 C     0.44530  -3.20880  -2.83250    72    73    74    71
 C     1.61070  -2.50950  -3.08590    73    44    65    72
 C     0.54290  -4.10150  -1.77860    74    82    72    66
 C    -0.02160  -4.61520   0.24890    75    79    76    82
 C     1.30720  -4.43460   0.29450    76    75    66    77
 C     1.95110  -3.84570   1.39170    77    78    76    92
 C     3.11000  -3.22290   1.08390    78    77    16    68
 C    -0.73920  -4.30390   1.31170    79    75    83    95
 C    -2.66150  -3.77880  -0.09180    80    86    83    81
 C    -1.80960  -3.92880  -1.23490    81    82    70    80
 C    -0.53480  -4.40940  -1.00870    82    74    75    81
 C    -2.02830  -3.95290   1.16140    83    79    88    80
 C    -3.29680  -2.34450   2.21200    84    88    90    85
 C    -4.06200  -2.19790   1.08360    85    84    47    86
 C    -3.71930  -2.85900  -0.09220    86    87    85    80
 C    -3.91850  -2.09960  -1.21540    87    86    69    49
 C    -2.29780  -3.18460   2.24970    88    84    83    96
 C    -3.87110   0.94290   2.34470    89    91    52   100
 C    -3.19790  -1.18450   2.90370    90    91    84    98
 C    -4.06090  -0.35170   2.27840    91    89    90    47
 C     1.16430  -3.32220   2.45730    92    95    77    93
 C     1.51860  -2.09480   3.15260    93    17    92    94
 C     0.44760  -1.23070   3.68230    94    97    22    93
 C    -0.16910  -3.64380   2.39020    95    96    92    79
 C    -1.14750  -2.89850   2.95270    96    95    88    97
 C    -0.91490  -1.67230   3.58870    97    96    98    94
 C    -2.01210  -0.77050   3.57280    98    99    97    90
 C    -1.78270   0.62180   3.61590    99   100    98    23
 C    -2.76740   1.43420   3.01740   100    13    89    99
