   100
C100-Cs-291                                                                     
 C    -4.91560  -0.70220  -0.36040     1    61     2    13
 C    -4.91080   0.68330  -0.36200     2    63     1     6
 C    -2.48000   3.84910  -0.42740     3     4    69     7
 C    -3.55790   3.04030  -0.61620     4     3     5    64
 C    -3.67040   2.28070  -1.75630     5     4     6    18
 C    -4.40610   1.10780  -1.58440     6    12     2     5
 C    -1.42450   3.99190  -1.33050     7     3    10     8
 C    -1.44070   3.14070  -2.49200     8    18     7    17
 C     0.95160   4.08690  -1.39460     9    10   100    20
 C    -0.20570   4.40110  -0.76060    10     9    11     7
 C    -0.05810   4.45190   0.63100    11    68    98    10
 C    -4.12580  -0.02120  -2.28180    12    16    13     6
 C    -4.41870  -1.14470  -1.58210    13    12     1    14
 C    -3.67090  -2.30720  -1.75080    14    15    13    22
 C    -3.55300  -3.05360  -0.60340    15    24    14    59
 C    -3.08990  -0.01150  -3.12850    16    12    19    21
 C    -0.16460   2.71790  -3.03870    17    20    33     8
 C    -2.57550   2.30460  -2.67000    18    19     8     5
 C    -2.33180   1.10600  -3.33230    19    16    34    18
 C     0.97710   3.26400  -2.50490    20    90    17     9
 C    -2.33050  -1.13310  -3.32580    21    16    35    22
 C    -2.57090  -2.33520  -2.66000    22    21    28    14
 C    -1.41090  -4.00050  -1.31350    23    24    31    28
 C    -2.46640  -3.85010  -0.41130    24    15    25    23
 C    -2.26600  -3.87920   0.94920    25    26    41    24
 C    -1.06390  -4.08900   1.44610    26    25    32    43
 C    -0.15300  -2.73460  -3.02940    27    29    37    28
 C    -1.42620  -3.16000  -2.48240    28    22    23    27
 C     0.98530  -3.27720  -2.48300    29    27    97    30
 C     0.97210  -4.09530  -1.36820    30    31    57    29
 C    -0.19080  -4.40040  -0.74070    31    30    32    23
 C    -0.04340  -4.43510   0.65010    32    26    56    31
 C     0.05110   1.42960  -3.64280    33    34    17    38
 C    -1.09200   0.67630  -3.74630    34    33    19    35
 C    -1.09060  -0.70670  -3.74720    35    37    21    34
 C     1.32050  -0.73560  -3.63330    36    96    37    38
 C     0.05650  -1.44930  -3.64030    37    35    27    36
 C     1.32260   0.72480  -3.63520    38    91    33    36
 C    -3.31390  -1.09300   2.78350    39    40    49    60
 C    -2.67940  -2.28720   2.66480    40    39    41    44
 C    -3.11970  -3.05190   1.57170    41    25    59    40
 C     0.75840  -3.38310   2.43380    42    43    45    56
 C    -0.59550  -3.37510   2.52250    43    42    26    44
 C    -1.33980  -2.37670   3.12310    44    43    40    47
 C     1.54420  -2.38370   2.97440    45    42    54    46
 C     0.84370  -1.24430   3.56720    46    51    47    45
 C    -0.60470  -1.24070   3.63180    47    48    44    46
 C    -1.30630   0.01340   3.69300    48    49    47    75
 C    -2.65950   0.01260   3.28430    49    65    39    48
 C     2.85570   0.01330   3.12220    50    55    77    51
 C     1.53300   0.01860   3.58310    51    50    74    46
 C     4.15680  -2.49670   0.38300    52    83    88    53
 C     3.23560  -3.07990   1.26480    53    58    52    54
 C     2.85220  -2.30150   2.42610    54    55    45    53
 C     3.50270  -1.09810   2.59400    55    84    54    50
 C     1.11860  -4.11190   1.30500    56    58    32    42
 C     2.17260  -3.95130  -0.72000    57    86    30    58
 C     2.29210  -3.91450   0.67060    58    56    53    57
 C    -4.01700  -2.59920   0.63500    59    61    41    15
 C    -4.31720  -0.68010   1.91030    60    62    61    39
 C    -4.66120  -1.41240   0.78990    61    59     1    60
 C    -4.31740   0.68390   1.90480    62    60    63    65
 C    -4.65730   1.41260   0.77730    63    64     2    62
 C    -4.01100   2.59710   0.62810    64    63    67     4
 C    -3.32050   1.10880   2.77840    65    66    49    62
 C    -2.69060   2.30500   2.65650    66    65    67    73
 C    -3.12180   3.07080   1.56110    67    69    64    66
 C    -1.07870   4.11400   1.43140    68    69    11    70
 C    -2.27770   3.90390   0.93300    69    68    67     3
 C    -0.60900   3.40050   2.50940    70    71    68    73
 C     0.74620   3.40850   2.41850    71    70    72    98
 C     1.53600   2.41230   2.96210    72    71    78    74
 C    -1.35080   2.40010   3.11510    73    70    66    75
 C     0.83740   1.27750   3.56410    74    51    75    72
 C    -0.60790   1.27030   3.62880    75    48    73    74
 C     4.49310   0.68660   1.76160    76    84    79    77
 C     3.49150   1.13130   2.58780    77    76    78    50
 C     2.84200   2.33440   2.40820    78    77    72    81
 C     4.78240   1.35930   0.62360    79    80    76    85
 C     4.13850   2.51060   0.36760    80    79    92    81
 C     3.22140   3.10640   1.24240    81    99    80    78
 C     4.97320  -0.65960  -0.53240    82    85    87    83
 C     4.80260  -1.34700   0.64520    83    52    84    82
 C     4.50460  -0.66210   1.77000    84    76    83    55
 C     4.96690   0.67080  -0.55080    85    82    93    79
 C     2.94530  -3.17020  -1.50180    86    88    57    97
 C     4.35050  -1.32990  -1.54890    87    88    82    95
 C     3.95970  -2.50600  -0.98720    88    86    87    52
 C     2.93300   3.17490  -1.51960    89    92   100    90
 C     2.21120   2.66710  -2.57030    90    89    20    91
 C     2.46860   1.39630  -3.10750    91    90    94    38
 C     3.95060   2.51620  -1.00430    92    89    93    80
 C     4.35000   1.34110  -1.56350    93    92    85    94
 C     3.60570   0.70420  -2.59520    94    95    93    91
 C     3.60330  -0.70640  -2.59010    95    94    87    96
 C     2.46650  -1.40360  -3.09760    96    97    95    36
 C     2.21760  -2.67120  -2.55330    97    86    29    96
 C     1.10410   4.13360   1.28590    98    99    11    71
 C     2.27540   3.93420   0.64980    99    98    81   100
 C     2.15370   3.95520  -0.74100   100    89     9    99
