   100
C100-C1-405                                                                     
 C     4.27150  -2.07250  -0.09200     1     6     2    58
 C     4.59900  -1.04920  -0.95710     2     3     1     9
 C     4.77860   0.16070  -0.32160     3     4     2    57
 C     4.46000   1.33230  -0.95380     4     5    16     3
 C     3.87950   1.33210  -2.16700     5     4    10    17
 C     3.47250  -3.10350  -0.48980     6     7    13     1
 C     2.91690  -3.11630  -1.71710     7     6     8    98
 C     3.17030  -2.09010  -2.57050     8     7     9    27
 C     4.01960  -1.05190  -2.24680     9    10     8     2
 C     3.64370   0.15320  -2.79980    10     5     9    29
 C     0.73920  -4.09260   1.47560    11    94    12    62
 C     1.53050  -4.18270   0.37570    12    11    13    97
 C     2.77210  -3.59330   0.55340    13     6    12    64
 C    -0.79970   4.30740  -0.46930    14    26    15    36
 C     0.56790   4.29970  -0.61030    15    14    34    20
 C     4.08860   2.26470  -0.04820    16     4    19    48
 C     2.91030   2.24530  -2.48390    17     5    21    18
 C     2.50350   3.25720  -1.62910    18    17    20    19
 C     3.16610   3.26450  -0.36000    19    33    16    18
 C     1.16730   3.73290  -1.77910    20    18    15    23
 C     2.05110   1.61680  -3.36150    21    22    17    29
 C     0.73940   1.98850  -3.53290    22    21    31    23
 C     0.27970   3.13470  -2.77090    23    25    22    20
 C    -1.96210   2.30020  -3.12040    24    32    25    41
 C    -1.11690   3.25550  -2.58380    25    24    26    23
 C    -1.62850   3.85550  -1.44090    26    14    43    25
 C     2.01750  -1.92860  -3.32520    27    88    28     8
 C     1.62170  -0.70830  -3.83430    28    27    29    30
 C     2.49450   0.32300  -3.54910    29    21    28    10
 C     0.25750  -0.44580  -4.04110    30    28    31    90
 C    -0.15840   0.94420  -3.96380    31    32    22    30
 C    -1.49290   1.17580  -3.75680    32    31    93    24
 C     2.48600   3.72810   0.72310    33    19    34    46
 C     1.23030   4.25180   0.60090    34    33    15    38
 C    -2.68010   3.59370   0.50770    35    36    43    40
 C    -1.46290   4.13810   0.74970    36    35    37    14
 C    -0.80050   3.91100   1.91540    37    36    38    50
 C     0.56870   4.05310   1.80470    38    45    37    34
 C    -4.18120   1.84920   0.79700    39    69    40    44
 C    -3.29690   2.72000   1.40890    40    39    35    52
 C    -3.20350   1.99970  -2.58350    41    84    42    24
 C    -3.65660   2.58380  -1.42310    42    43    44    41
 C    -2.83190   3.49480  -0.86410    43    42    26    35
 C    -4.38600   1.78550  -0.57910    44    87    42    39
 C     1.42720   3.37800   2.59830    45    49    46    38
 C     2.60960   3.16140   1.98470    46    45    47    33
 C     3.38690   2.04160   2.24690    47    48    46    54
 C     4.17750   1.65620   1.20500    48    47    57    16
 C     0.95420   2.48470   3.46050    49    45    53    51
 C    -1.34690   2.97540   2.84040    50    51    37    52
 C    -0.39290   2.28120   3.58030    51    73    49    50
 C    -2.59380   2.32240   2.59180    52    50    40    71
 C     1.65590   1.34240   3.72310    53    49    59    54
 C     2.88750   1.04280   3.14000    54    53    47    55
 C     3.20500  -0.33960   2.95350    55    54    56    61
 C     4.11140  -0.65750   1.88560    56    58    57    55
 C     4.56260   0.35520   1.03990    57    48     3    56
 C     4.02850  -1.89000   1.26680    58    64    56     1
 C     0.72070   0.40890   4.08400    59    53    60    73
 C     0.95320  -0.93830   3.93900    60    59    67    61
 C     2.22660  -1.34300   3.37090    61    63    60    55
 C     1.07950  -3.32200   2.59960    62    68    63    11
 C     2.24420  -2.59710   2.69640    63    64    62    61
 C     3.12000  -2.82840   1.66530    64    58    63    13
 C    -2.54350  -1.80920   3.11770    65    76    74    66
 C    -1.55150  -1.10250   3.78620    66    65    72    67
 C    -0.23630  -1.71030   3.83210    67    68    60    66
 C    -0.09210  -2.92160   3.16280    68    77    62    67
 C    -4.42200   0.60710   1.31250    69    39    70    80
 C    -3.75910   0.14630   2.44370    70    74    69    71
 C    -2.80570   0.97460   3.11010    71    70    72    52
 C    -1.72060   0.30470   3.80690    72    73    66    71
 C    -0.55300   0.99610   4.00990    73    51    72    59
 C    -3.59730  -1.22710   2.46900    74    65    70    83
 C    -3.09550  -3.11510   1.38670    75    76    83    79
 C    -2.29910  -2.98560   2.46750    76    77    75    65
 C    -1.09660  -3.51500   2.46470    77    76    68    94
 C    -3.15430  -3.15500  -0.92700    78    79    99    81
 C    -2.62210  -3.71170   0.20640    79    78    75    95
 C    -4.79630  -0.22210   0.25070    80    87    82    69
 C    -4.10060  -2.14560  -0.90260    81    85    78    82
 C    -4.53150  -1.56710   0.28000    82    83    80    81
 C    -3.97420  -2.05960   1.41240    83    82    75    74
 C    -3.49170   0.69520  -2.89670    84    41    86    93
 C    -3.94530  -1.40470  -2.04740    85    81    86    91
 C    -4.28730  -0.07480  -2.08440    86    84    85    87
 C    -4.73020   0.50310  -0.91070    87    44    80    86
 C     1.09820  -2.87940  -2.93280    88    89    98    27
 C    -0.25600  -2.72630  -3.10820    89    88   100    90
 C    -0.71090  -1.50570  -3.75020    90    92    89    30
 C    -2.87350  -1.92650  -2.75630    91    99    92    85
 C    -2.05590  -1.14560  -3.55700    92    93    91    90
 C    -2.42410   0.18150  -3.60570    93    32    92    84
 C    -0.60940  -4.16700   1.36620    94    11    77    95
 C    -1.31080  -4.22780   0.15400    95    94    79    96
 C    -0.51640  -4.15520  -1.04280    96    97    95   100
 C     0.90250  -4.19450  -0.90630    97    98    96    12
 C     1.65860  -3.61540  -1.91130    98     7    88    97
 C    -2.39080  -3.01860  -2.07040    99    91    78   100
 C    -1.08540  -3.46030  -2.18440   100    99    89    96
