   100
C100-C1-360                                                                     
 C    -2.36950   0.42580  -3.51900     1     9     2     4
 C    -3.52070   0.38400  -2.76970     2     1     3     7
 C    -3.80740   1.59540  -2.14870     3    56     6     2
 C    -1.54670   1.54320  -3.61320     4     5    24     1
 C    -1.79800   2.71920  -2.96140     5     4     6    21
 C    -2.98290   2.69870  -2.23730     6    62     3     5
 C    -3.89000  -0.83940  -2.16080     7     8     2    11
 C    -4.56700  -0.70770  -0.93510     8    27    55     7
 C    -1.60050  -0.68210  -3.73430     9     1    10    25
 C    -1.91820  -1.93080  -3.21380    10     9    15    11
 C    -3.09790  -2.01970  -2.36400    11     7    12    10
 C    -3.08980  -3.01040  -1.32060    12    13    26    11
 C    -1.97820  -3.83340  -1.25700    13    16    12    28
 C     0.53470  -2.35960  -3.42260    14    17    22    15
 C    -0.80300  -2.78950  -3.08980    15    16    10    14
 C    -0.91370  -3.76090  -2.10220    16    13    19    15
 C     1.57950  -2.99210  -2.76310    17   100    18    14
 C     1.38090  -3.90960  -1.76540    18    19    50    17
 C     0.16620  -4.26160  -1.43320    19    18    31    16
 C    -0.91680   4.17410  -1.33460    20    78    61    21
 C    -0.69190   3.48430  -2.53850    21    20     5    94
 C     0.82230  -1.03380  -3.84060    22    25    14    98
 C     0.86650   1.84740  -3.55270    23    24    97    94
 C    -0.27230   1.12520  -3.88480    24     4    25    23
 C    -0.29870  -0.24900  -3.99800    25    22    24     9
 C    -3.74810  -2.77780  -0.07880    26    27    30    12
 C    -4.45810  -1.61730   0.07760    27     8    26    34
 C    -1.46930  -4.32160  -0.06120    28    29    31    13
 C    -2.00530  -3.96630   1.08670    29    28    30    43
 C    -3.14300  -3.24320   1.09580    30    29    32    26
 C    -0.13450  -4.51580  -0.13100    31    28    19    49
 C    -3.12610  -2.52250   2.26210    32    33    30    36
 C    -3.79960  -1.35020   2.36620    33    32    34    35
 C    -4.51860  -0.91950   1.28440    34    54    33    27
 C    -3.18140  -0.38480   3.11750    35    33    52    39
 C    -1.89210  -2.74200   2.87260    36    43    38    32
 C     0.17320  -1.76130   3.64850    37    38    41    47
 C    -1.23930  -1.77010   3.59630    38    36    39    37
 C    -1.94800  -0.58380   3.70490    39    70    35    38
 C     2.10210  -0.34640   3.58020    40    41    48    71
 C     0.77520  -0.46760   3.90210    41    40    69    37
 C     0.20260  -3.74510   2.12310    42    43    49    47
 C    -1.19090  -3.66460   2.15440    43    36    29    42
 C     3.92820  -2.42340   0.78390    44    84    92    45
 C     2.88110  -3.14750   1.40570    45    51    44    46
 C     2.28600  -2.55960   2.57370    46    48    47    45
 C     0.93000  -2.80250   2.92970    47    46    42    37
 C     2.84060  -1.34410   2.98240    48    85    40    46
 C     0.78010  -4.27710   0.92620    49    51    31    42
 C     2.35880  -3.83870  -0.83110    50    18    88    51
 C     2.09580  -3.95320   0.55630    51    49    45    50
 C    -3.32320   0.95800   2.83660    52    35    63    53
 C    -4.08860   1.42160   1.78480    53    52    54    58
 C    -4.68000   0.41150   1.01030    54    55    34    53
 C    -4.79010   0.52160  -0.34510    55    56    54     8
 C    -4.41760   1.65250  -0.92750    56    55     3    59
 C    -2.49810   3.29700   1.66900    57    60    65    58
 C    -3.66560   2.61640   1.17630    58    53    59    57
 C    -3.91690   2.70440  -0.20830    59    62    56    58
 C    -1.78270   4.04530   0.73130    60    68    61    57
 C    -2.07380   4.05900  -0.61000    61    62    20    60
 C    -3.10390   3.37440  -1.05780    62    61    59     6
 C    -2.17640   1.58660   3.27640    63    52    65    70
 C    -0.29700   3.01460   2.87590    64    67    65    73
 C    -1.70530   2.76940   2.74120    65    63    57    64
 C     1.64210   3.78870   1.64000    66    74    67    76
 C     0.30020   3.87000   1.90660    67    66    68    64
 C    -0.45500   4.30660   0.84020    68    60    67    78
 C     0.02070   0.76700   3.93100    69    70    73    41
 C    -1.33790   0.63310   3.82530    70    39    69    63
 C     2.69110   0.87080   3.28650    71    72    40    80
 C     1.95810   2.04160   3.21500    72    71    74    73
 C     0.57700   2.02860   3.51330    73    72    69    64
 C     2.47920   2.93950   2.29800    74    66    82    72
 C     3.33130   3.30580   0.30710    75    79    76    82
 C     2.17330   3.99440   0.36710    76    75    77    66
 C     1.37680   4.19710  -0.74440    77    78    76    93
 C     0.07740   4.43490  -0.45040    78    77    20    68
 C     3.70440   2.74260  -0.85680    79    75    86    95
 C     3.81550   0.62130   2.51210    80    85    81    71
 C     4.27670   1.49830   1.54300    81    82    80    87
 C     3.57340   2.67100   1.49250    82    75    81    74
 C     4.82870  -0.42790   0.22810    83    87    91    84
 C     4.42410  -1.25120   1.26040    84    85    44    83
 C     3.89360  -0.72620   2.36260    85    84    80    48
 C     4.41020   1.58350  -0.84880    86    79    87    89
 C     4.76190   0.94310   0.33410    87    83    86    81
 C     3.27030  -2.99030  -1.36700    88    92    50   100
 C     4.03610   0.89730  -1.99990    89    90    96    86
 C     4.08040  -0.46640  -2.08970    90    89    91    99
 C     4.55200  -1.10990  -0.93570    91    92    83    90
 C     4.09340  -2.33360  -0.57680    92    88    91    44
 C     1.69850   3.53310  -1.96460    93    95    77    94
 C     0.65520   3.09230  -2.83200    94    93    21    23
 C     2.87850   2.80690  -1.95330    95    79    96    93
 C     3.06870   1.63850  -2.65970    96    95    89    97
 C     2.06550   1.07440  -3.43980    97    96    23    98
 C     2.07740  -0.36760  -3.57610    98    99    22    97
 C     3.10800  -1.10850  -2.89960    99   100    90    98
 C     2.78720  -2.40720  -2.52640   100    17    88    99
