   100
C100-C1-256                                                                     
 C    -2.93930   1.85470   2.64980     1     2    65     4
 C    -3.63240   2.18790   1.49380     2     3     1    61
 C    -4.43790   1.31720   0.83490     3     6    18     2
 C    -3.06060   0.47340   3.09820     4     5     9     1
 C    -3.84460  -0.38160   2.32610     5     6     4    30
 C    -4.54780   0.03950   1.24930     6     3    19     5
 C     0.27490   0.22180   4.38590     7    10    15     8
 C    -0.98720   0.68420   4.16530     8     7    66     9
 C    -2.03340  -0.15400   3.80670     9     8     4    12
 C     0.55970  -1.06030   4.23600    10     7    11    98
 C    -0.41550  -1.93470   3.86240    11    31    10    12
 C    -1.73180  -1.55780   3.62360    12    11    29     9
 C     3.00090   1.76380   2.80760    13    14    94    69
 C     2.46490   0.80990   3.61700    14    13    15    97
 C     1.20030   1.16050   4.10020    15     7    71    14
 C    -4.51030   0.61270  -1.38690    16    18    38    17
 C    -4.64940  -0.67170  -0.96080    17    19    21    16
 C    -4.41370   1.60650  -0.48680    18    16    37     3
 C    -4.64930  -0.96830   0.35370    19    17     6    23
 C    -2.33940  -3.02700  -2.16910    20    28    22    40
 C    -3.99250  -1.47970  -1.81680    21    17    22    39
 C    -3.38460  -2.64710  -1.38090    22    20    21    25
 C    -3.98700  -2.05630   0.84170    23    19    30    25
 C    -2.24020  -3.69450   0.56790    24    25    27    33
 C    -3.34060  -2.97290   0.01630    25    23    24    22
 C     0.01100  -4.45980   0.04550    26    34    27    87
 C    -1.27240  -4.18800  -0.36170    27    26    28    24
 C    -1.33800  -3.80810  -1.70260    28    20    89    27
 C    -2.44120  -2.34880   2.67430    29    30    12    33
 C    -3.52010  -1.72600   2.10090    30    29    23     5
 C     0.20950  -2.95520   3.21870    31    11    32    91
 C    -0.44000  -3.70630   2.26030    32    34    31    33
 C    -1.79360  -3.41330   1.93250    33    32    29    24
 C     0.42490  -4.23050   1.33160    34    26    32    93
 C    -2.85640   2.79320  -1.86750    35    37    46    36
 C    -2.90290   1.69590  -2.82710    36    38    43    35
 C    -3.59400   2.65940  -0.69290    37    18    35    61
 C    -3.74450   0.63740  -2.50820    38    16    39    36
 C    -3.44540  -0.66700  -2.82100    39    41    38    21
 C    -1.82240  -2.24690  -3.20970    40    54    41    20
 C    -2.30830  -0.99590  -3.51650    41    39    40    42
 C    -1.41440   0.00240  -3.97440    42    41    43    56
 C    -1.76430   1.37170  -3.62310    43    44    36    42
 C    -0.74030   2.28290  -3.55230    44    43    58    45
 C    -0.72940   3.36500  -2.68780    45    48    44    46
 C    -1.72580   3.60490  -1.74830    46    45    35    47
 C    -1.29860   4.14360  -0.47250    47    50    60    46
 C     0.56910   3.69070  -2.48250    48    49    45    51
 C     0.96940   4.24060  -1.34410    49    48    73    50
 C     0.04960   4.44130  -0.34280    50    62    49    47
 C     1.38590   2.83410  -3.14340    51    48    58    52
 C     2.64970   2.51650  -2.65730    52    53    51    72
 C     3.04970   1.26470  -3.00980    53    52    77    59
 C    -0.51280  -2.58610  -3.38860    54    40    89    55
 C     0.44090  -1.70660  -3.88270    55    54    83    56
 C    -0.01780  -0.36310  -4.19050    56    57    55    42
 C     0.95150   0.66960  -4.12590    57    58    59    56
 C     0.56800   1.95050  -3.82440    58    57    44    51
 C     2.24970   0.37410  -3.73900    59    84    57    53
 C    -1.96530   3.78670   0.73480    60    61    47    64
 C    -3.13290   3.08480   0.55570    61    60     2    37
 C     0.73110   4.34230   0.83870    62    50    67    63
 C     0.14560   3.90290   2.02000    63    62    70    64
 C    -1.26150   3.60670   1.98640    64    63    60    65
 C    -1.77000   2.61270   2.91420    65    66     1    64
 C    -0.84610   1.99570   3.74200    66    71     8    65
 C     2.04730   4.07090   0.49700    67    68    73    62
 C     2.80880   3.34080   1.30910    68    67    69    74
 C     2.32930   2.93910   2.49940    69    68    13    70
 C     1.01990   3.22060   2.89970    70    71    69    63
 C     0.49860   2.29080   3.73240    71    70    66    15
 C     3.09200   3.05900  -1.43310    72    73    52    75
 C     2.20180   3.95890  -0.83940    73    67    49    72
 C     3.71260   2.43350   0.80730    74    68    94    75
 C     3.89370   2.24280  -0.56250    75    74    78    72
 C     3.66900  -0.76390  -2.53170    76    79    77    84
 C     3.88760   0.53540  -2.20240    77    76    53    78
 C     4.30240   0.94300  -0.92200    78    77    75    81
 C     3.90290  -1.71510  -1.64780    79    76    85    80
 C     4.29360  -1.40840  -0.36360    80    99    79    81
 C     4.47210  -0.09820   0.07080    81    80    95    78
 C     2.09120  -3.04600  -2.57080    82    88    85    83
 C     1.78680  -1.97970  -3.48060    83    84    55    82
 C     2.64170  -0.88920  -3.43800    84    59    76    83
 C     3.16620  -2.85150  -1.68260    85    79    90    82
 C     2.17720  -4.06140   0.02800    86    90    93    87
 C     1.12060  -4.33510  -0.77880    87    86    88    26
 C     1.04690  -3.84420  -2.07470    88    89    87    82
 C    -0.21950  -3.60240  -2.50090    89    88    54    28
 C     3.19540  -3.31900  -0.40360    90    86    85    99
 C     1.58340  -2.65000   3.18040    91    98    92    31
 C     2.41500  -3.10160   2.20220    92    91    93   100
 C     1.78900  -3.96640   1.31830    93    86    92    34
 C     3.83700   1.43200   1.75600    94    13    74    95
 C     4.18220   0.11890   1.45420    95    94    81    96
 C     3.65630  -0.93350   2.31190    96   100    97    95
 C     2.78970  -0.54690   3.39570    97    98    14    96
 C     1.79110  -1.44850   3.77600    98    91    10    97
 C     3.84000  -2.42720   0.43210    99    80    90   100
 C     3.47250  -2.24660   1.75850   100    99    92    96
