   100
C100-C1-351                                                                     
 C    -3.41670   1.47540   2.48220     1     2     6    59
 C    -2.76740   2.65710   2.31960     2     1     3     9
 C    -3.08670   3.30640   1.12730     3     4    58     2
 C    -2.17500   4.08110   0.48910     4     5     3    29
 C    -1.01830   4.31190   1.05660     5     4    20    10
 C    -2.83780   0.47080   3.20670     6    65     1     7
 C    -1.52770   0.50790   3.74990     7     6     8    16
 C    -0.80400   1.72180   3.59280     8     7     9    12
 C    -1.47540   2.80400   2.89750     9    10     2     8
 C    -0.66340   3.71740   2.25270    10    14     9     5
 C     1.29740   0.37000   3.76710    11    15    18    12
 C     0.64590   1.65890   3.62080    12    13     8    11
 C     1.40100   2.71070   2.96700    13    14    24    12
 C     0.67980   3.67310   2.28060    14    10    21    13
 C     2.61980   0.27160   3.30520    15   100    23    11
 C    -0.86140  -0.75760   3.87290    16    17    18     7
 C    -1.59050  -1.88370   3.46640    17    95    64    16
 C     0.56070  -0.86660   3.84740    18    16    11    97
 C     2.27170   3.91280   0.58640    19    21    22    25
 C     0.07500   4.50800   0.27920    20    21     5    27
 C     1.11100   4.23300   1.09180    21    19    20    14
 C     3.11840   3.13520   1.29360    22    19    45    24
 C     3.30040   1.30150   2.68960    23    24    15    43
 C     2.70920   2.50370   2.48080    24    23    22    13
 C     2.41790   3.72470  -0.76680    25    40    19    26
 C     1.32780   3.80500  -1.65770    26    25    27    37
 C     0.10240   4.28710  -1.12290    27    28    20    26
 C    -1.12710   3.94090  -1.70780    28    27    29    31
 C    -2.26560   3.93730  -0.86420    29    30     4    28
 C    -3.35730   3.15520  -1.03140    30    33    29    58
 C    -1.14300   3.02600  -2.79760    31    32    28    38
 C    -2.32440   2.27860  -2.94020    32    51    33    31
 C    -3.40920   2.34920  -2.07690    33    30    48    32
 C    -0.04150   1.10870  -3.87640    34    35    50    38
 C     1.08770   0.32410  -3.89560    35    39    34    69
 C     2.49770   2.01960  -2.86950    36    39    42    37
 C     1.34080   2.87600  -2.75470    37    26    36    38
 C     0.06540   2.44570  -3.30100    38    31    37    34
 C     2.30180   0.77130  -3.46250    39    35    88    36
 C     3.48860   2.89790  -0.88580    40    25    42    45
 C     4.33450   0.89060  -1.69220    41    87    46    42
 C     3.59540   2.04860  -1.95100    42    40    41    36
 C     4.24780   0.76990   1.82850    43    91    44    23
 C     4.59340   1.37870   0.63230    44    45    46    43
 C     3.96800   2.56080   0.38370    45    44    22    40
 C     4.82370   0.55430  -0.43680    46    44    94    41
 C    -3.43530  -0.93150  -2.75550    47    49    52    54
 C    -4.06220   1.15410  -1.98740    48    49    33    56
 C    -3.43720   0.37980  -2.90350    49    47    48    51
 C    -1.24200   0.35410  -3.91600    50    51    34    53
 C    -2.36400   1.02010  -3.46990    51    32    49    50
 C    -2.37620  -1.65490  -3.21730    52    47    73    53
 C    -1.24780  -1.08670  -3.80280    53    52    70    50
 C    -4.01730  -1.52580  -1.67110    54    47    66    55
 C    -4.59750  -0.78260  -0.62990    55    54    61    56
 C    -4.63530   0.64210  -0.80240    56    48    57    55
 C    -4.50800   1.50900   0.30810    57    59    58    56
 C    -3.89620   2.74080   0.16360    58    30     3    57
 C    -4.28550   0.91470   1.53050    59    62    57     1
 C    -3.78330  -2.62310   0.82640    60    63    68    61
 C    -4.43830  -1.36000   0.65920    61    62    55    60
 C    -4.27150  -0.43490   1.69990    62    59    65    61
 C    -3.03580  -2.81420   2.00500    63    77    64    60
 C    -2.84650  -1.82120   2.91360    64    65    63    17
 C    -3.44940  -0.67050   2.77190    65    64     6    62
 C    -3.35570  -2.71170  -1.51640    66    54    68    73
 C    -2.11960  -4.09950  -0.14900    67    76    68    74
 C    -3.25330  -3.31540  -0.29350    68    66    67    60
 C     1.08890  -1.07530  -3.80020    69    80    70    35
 C    -0.05170  -1.82570  -3.66860    70    69    53    71
 C     0.04190  -3.04950  -2.90290    71    72    70    82
 C    -1.16490  -3.50840  -2.30020    72    74    73    71
 C    -2.33640  -2.80150  -2.47830    73    52    72    66
 C    -1.12090  -4.20320  -1.11160    74    85    72    67
 C    -0.17060  -4.45750   0.87540    75    76    79    85
 C    -1.49200  -4.25410   1.04520    76    77    75    67
 C    -1.92270  -3.58040   2.10690    77    76    63    95
 C     1.99590  -3.80900   1.25880    78    79    98    83
 C     0.76630  -4.00220   1.79050    79    78    75    96
 C     2.29800  -1.46920  -3.30490    80    69    88    81
 C     2.48150  -2.60590  -2.51540    81    80    90    82
 C     1.31560  -3.40190  -2.28470    82    84    81    71
 C     2.27270  -3.89120  -0.11190    83    89    84    78
 C     1.27000  -4.11370  -1.04530    84    85    83    82
 C     0.06850  -4.46410  -0.49520    85    74    84    75
 C     4.30600  -1.34170  -1.50000    86    87    94    90
 C     4.05800  -0.28060  -2.31110    87    88    41    86
 C     3.05680  -0.33800  -3.17740    88    87    80    39
 C     3.36670  -3.13370  -0.35240    89    83    90    92
 C     3.54270  -2.50740  -1.56480    90    89    86    81
 C     4.19120  -0.59110   1.94600    91    43    93   100
 C     3.79420  -2.58320   0.84680    92    93    98    89
 C     4.49780  -1.41790   0.88590    93    92    94    91
 C     4.79440  -0.81990  -0.31370    94    93    46    86
 C    -1.01340  -3.02290   2.98440    95    17    96    77
 C     0.34830  -3.17780   2.87950    96    95    79    97
 C     1.18080  -2.11770   3.36690    97    99    96    18
 C     2.87630  -2.93630   1.81510    98    78    92    99
 C     2.49980  -2.07690   2.85420    99   100    98    97
 C     3.19680  -0.90030   2.86890   100    99    15    91
