   100
C100-C1-148                                                                     
 C     0.90400   4.19240  -0.26860     1    16    64     2
 C     1.41610   3.89000   1.00890     2     1     3    13
 C     2.72130   3.34150   1.03690     3     4     2    65
 C     3.11700   2.47960   2.07650     4     3     5     7
 C     4.16100   1.56340   1.78840     5     6    50     4
 C     4.27120   0.35140   2.38590     6     9     5    21
 C     2.12200   2.09220   3.03410     7     8    14     4
 C     2.29540   0.81440   3.58280     8     9    31     7
 C     3.33130  -0.01070   3.27380     9     6    22     8
 C    -0.26540   1.77590   3.57320    10    11    30    14
 C    -1.56440   2.07370   3.25090    11    15    10    32
 C    -0.94400   3.77850   1.67290    12    15    18    13
 C     0.43690   3.58640   2.00670    13     2    12    14
 C     0.79480   2.60480   3.01330    14     7    13    10
 C    -1.90750   3.06490   2.36860    15    11    98    12
 C    -0.41370   4.24280  -0.58270    16    18     1    75
 C    -2.60100   3.70190  -0.12340    17    97    18    76
 C    -1.37220   4.12140   0.35570    18    16    17    12
 C     4.31650  -1.83300   1.56580    19    21    38    20
 C     3.37910  -2.19270   2.48170    20    22    19    29
 C     4.78530  -0.56610   1.50560    21    19    49     6
 C     2.89170  -1.28900   3.33660    22    20    23     9
 C     1.59800  -1.31670   3.70980    23    22    31    27
 C    -1.59090  -2.75580   2.67650    24    25    26    45
 C    -2.89590  -2.26440   2.52720    25    90    35    24
 C    -0.67550  -1.96490   3.42730    26    27    24    34
 C     0.68840  -2.29330   3.30460    27    23    26    28
 C     1.17940  -3.24130   2.32590    28    29    46    27
 C     2.52240  -3.10720   1.94650    29    20    39    28
 C    -0.05610   0.40600   3.95430    30    31    10    34
 C     1.23140  -0.00000   3.94190    31    30    23     8
 C    -2.60150   1.16200   3.28470    32    33    11    93
 C    -2.37920  -0.17690   3.53830    33    35    32    34
 C    -1.07540  -0.60780   3.83080    34    33    30    26
 C    -3.29040  -1.01070   2.94370    35    33    25    95
 C     3.45490  -2.39430  -1.79750    36    37    55    42
 C     4.29590  -1.92690  -0.82690    37    36    38    48
 C     4.06220  -2.50760   0.41990    38    19    37    39
 C     2.97380  -3.35130   0.66970    39    41    29    38
 C     0.75820  -4.06860   0.02320    40    41    44    46
 C     2.10700  -3.77280  -0.29320    41    39    42    40
 C     2.42560  -3.31750  -1.55900    42    61    41    36
 C    -1.51950  -3.92810  -0.73360    43    44    47    84
 C    -0.19840  -4.00700  -1.05320    44    43    60    40
 C    -1.09810  -3.64290   1.64160    45    47    46    24
 C     0.27850  -3.81890   1.39250    46    45    28    40
 C    -1.97560  -3.83190   0.56730    47    91    43    45
 C     4.74900  -0.57890  -0.92250    48    49    37    51
 C     4.99570   0.05590   0.31260    49    21    50    48
 C     4.69550   1.37700   0.52840    50    53    49     5
 C     4.25720   0.24640  -1.99840    51    52    56    48
 C     4.05810   1.59870  -1.72360    52    68    53    51
 C     4.25080   2.12640  -0.45790    53    50    65    52
 C     1.88730  -2.13800  -3.28690    54    57    61    55
 C     3.06590  -1.61230  -2.85810    55    54    36    56
 C     3.38520  -0.26120  -2.99760    56    55    51    59
 C     0.98140  -1.38790  -3.89740    57    54    62    58
 C     1.20400  -0.05990  -4.05900    58    57    71    59
 C     2.37220   0.56180  -3.62600    59    58    67    56
 C     0.13630  -3.49070  -2.33620    60    61    44    63
 C     1.46610  -3.16640  -2.50390    61    42    54    60
 C    -0.33810  -1.67740  -3.82120    62    57    77    63
 C    -0.83730  -2.74800  -3.09380    63    62    85    60
 C     1.53310   3.84200  -1.42950    64    66    69     1
 C     3.34940   3.11580  -0.21750    65    66    53     3
 C     2.72570   3.30310  -1.40160    66    64    65    68
 C     2.18090   1.90680  -3.27950    67    68    59    70
 C     3.08790   2.36240  -2.32630    68    66    52    67
 C     0.63370   3.50730  -2.39420    69    75    64    70
 C     0.87030   2.50910  -3.32830    70    69    72    67
 C    -0.06070   0.50560  -4.10480    71    72    77    58
 C    -0.30540   1.80530  -3.72910    72    71    70    73
 C    -1.63580   2.09560  -3.25070    73    74    72    79
 C    -1.74260   3.17310  -2.32390    74    76    75    73
 C    -0.59210   3.79670  -1.90090    75    69    74    16
 C    -2.77030   3.21610  -1.41880    76    82    74    17
 C    -1.01910  -0.48890  -3.99020    77    78    62    71
 C    -2.30590  -0.28520  -3.54370    78    77    88    79
 C    -2.66790   1.06380  -3.18100    79    81    78    73
 C    -4.40640   0.09410  -1.76380    80    87    81    99
 C    -3.75230   1.21540  -2.25830    81    82    80    79
 C    -3.77410   2.29370  -1.38910    82    76    81    96
 C    -3.53920  -3.03860  -0.77350    83    86    84    91
 C    -2.48620  -3.34910  -1.55940    84    83    85    43
 C    -2.16420  -2.62520  -2.70450    85    63    84    88
 C    -4.33080  -1.98790  -1.06720    86    83    92    87
 C    -4.01170  -1.17750  -2.11930    87    86    80    88
 C    -2.93980  -1.42840  -2.96390    88    87    78    85
 C    -4.57280  -1.55510   1.23420    89    95    90    92
 C    -3.72580  -2.58990   1.49550    90    91    89    25
 C    -3.23630  -3.34090   0.51280    91    90    47    83
 C    -4.88160  -1.25090  -0.06360    92    99    86    89
 C    -3.61120   1.61030   2.44180    93    98    94    32
 C    -4.49170   0.76520   1.78280    94    95    93   100
 C    -4.33370  -0.56390   2.12580    95    89    94    35
 C    -4.28350   2.22900  -0.09500    96    97   100    82
 C    -3.51100   3.07760   0.64460    97    98    17    96
 C    -3.16070   2.76610   1.89740    98    97    93    15
 C    -4.96190   0.04430  -0.46790    99    92   100    80
 C    -4.83410   1.08340   0.43410   100    96    99    94
