   100
C100-C1-110                                                                     
 C     4.99290  -0.08880   0.35470     1    64     4     2
 C     4.58310  -1.41550   0.60810     2     1    62     3
 C     3.87440  -1.69520   1.83280     3     6    14     2
 C     4.68260   0.93430   1.21850     4     5     1    12
 C     3.99490   0.65600   2.32820     5     4     8     6
 C     3.59520  -0.60760   2.65170     6     5    21     3
 C     1.58410   3.20020   2.39050     7     9    98    33
 C     3.09850   1.54610   2.81140     8     5    20     9
 C     2.83480   2.73850   2.15470     9     7     8    10
 C     3.45170   3.02440   0.92330    10    12     9    11
 C     2.64590   3.67430  -0.08130    11    13    97    10
 C     4.43300   2.10330   0.51580    12    66     4    10
 C     2.89080   3.24620  -1.38380    13    67    94    11
 C     2.94260  -2.73740   1.94590    14    15     3    17
 C     2.76750  -3.50110   0.78470    15    16    60    14
 C     1.62160  -4.16630   0.51740    16    19    15    43
 C     1.78580  -2.64250   2.81670    17    18    22    14
 C     0.69820  -3.41810   2.50930    18    17    27    19
 C     0.63140  -4.20150   1.38410    19    16    35    18
 C     2.14140   0.83310   3.51600    20    21    23     8
 C     2.44190  -0.49470   3.41680    21    20    22     6
 C     1.46210  -1.45100   3.52780    22    21    17    25
 C     0.86070   1.28140   3.72210    23    20    33    24
 C    -0.23670   0.37680   3.87950    24    23    25    29
 C     0.08270  -1.03240   3.79850    25    26    24    22
 C    -0.98600  -1.89880   3.44910    26    27    25    38
 C    -0.59510  -3.09650   2.83220    27    36    18    26
 C    -1.69890   2.20390   3.10190    28    31    32    29
 C    -1.58010   0.85610   3.57800    29    28    30    24
 C    -2.64830  -0.05080   3.21340    30    38    29    37
 C    -2.76230   2.60600   2.33410    31    40    28    93
 C    -0.57280   2.96150   2.86690    32    33    28    91
 C     0.65390   2.53290   3.18580    33    32    23     7
 C    -2.59950  -3.33990   1.67670    34    36    47    39
 C    -0.63510  -4.35630   0.97940    35    19    36    41
 C    -1.38990  -3.76610   1.93930    36    34    35    27
 C    -3.77740   0.41720   2.41320    37    40    57    30
 C    -2.31430  -1.43590   3.16560    38    39    30    26
 C    -3.09700  -2.22920   2.29580    39    34    58    38
 C    -3.78880   1.76000   2.02290    40    31    88    37
 C    -1.01210  -4.38110  -0.37520    41    48    35    42
 C     0.04180  -4.15650  -1.31370    42    43    41    51
 C     1.33600  -4.13460  -0.82080    43    44    16    42
 C     2.37030  -3.48720  -1.40250    44    43    45    60
 C     2.17780  -2.71240  -2.53400    45    46    44    52
 C     3.13560  -1.75570  -2.68800    46    45    69    61
 C    -3.11430  -3.48310   0.42560    47    34    53    48
 C    -2.30570  -3.92670  -0.62840    48    49    41    47
 C    -2.50920  -3.23450  -1.79950    49    56    48    50
 C    -1.46850  -2.90640  -2.64740    50    51    49    72
 C    -0.17470  -3.33680  -2.46900    51    50    42    52
 C     0.86440  -2.53690  -3.05250    52    45    51    71
 C    -4.06940  -2.51820   0.30580    53    47    55    58
 C    -4.81500  -0.67050  -0.88350    54    55    83    59
 C    -4.34280  -1.94100  -0.90370    55    54    53    56
 C    -3.49160  -2.28770  -1.93310    56    49    55    85
 C    -4.47710  -0.45650   1.51790    57    58    59    37
 C    -4.08700  -1.75570   1.48160    58    57    39    53
 C    -4.97050   0.05210   0.29960    59    89    54    57
 C     3.32460  -3.16410  -0.42060    60    62    15    44
 C     4.18570  -1.52420  -1.78790    61    63    62    46
 C     4.22810  -2.15840  -0.55380    62    60    61     2
 C     4.57630  -0.24020  -1.93910    63    61    64    65
 C     5.02090   0.48780  -0.88930    64    63    66     1
 C     3.74290   0.32290  -2.86240    65    68    69    63
 C     4.67090   1.80610  -0.78630    66    67    12    64
 C     3.86280   2.35590  -1.71700    67    66    68    13
 C     3.39310   1.60880  -2.74800    68    65    78    67
 C     2.82520  -0.57240  -3.31200    69    65    46    70
 C     1.52900  -0.24100  -3.73090    70    69    71    77
 C     0.52280  -1.24180  -3.66610    71    70    73    52
 C    -1.79220  -1.71150  -3.26850    72    85    50    73
 C    -0.83340  -0.80140  -3.71620    73    72    71    75
 C    -2.55540   0.92240  -3.26040    74    79    84    75
 C    -1.21910   0.59610  -3.68430    75    74    76    73
 C    -0.16680   1.57740  -3.54660    76    77    75    81
 C     1.17440   1.15370  -3.63660    77    78    76    70
 C     2.14670   2.01130  -3.09490    78    68    94    77
 C    -2.76030   2.17170  -2.67400    79    86    80    74
 C    -1.72350   3.04070  -2.42010    80    81    79    99
 C    -0.43880   2.81880  -2.82680    81    80    95    76
 C    -4.57440   1.45770  -1.34830    82    83    86    89
 C    -4.46610   0.22930  -1.88670    83    82    54    84
 C    -3.49170  -0.06910  -2.85290    84    85    83    74
 C    -3.05420  -1.35740  -2.85460    85    84    72    56
 C    -3.74640   2.43730  -1.75650    86    82    90    79
 C    -3.60560   3.27020   0.41170    87    93    90    88
 C    -4.35670   2.22540   0.85450    88    89    87    40
 C    -4.89060   1.35890  -0.01460    89    88    59    82
 C    -3.28720   3.38090  -0.90290    90    86    87    99
 C    -0.42960   3.86950   1.81940    91    92    98    32
 C    -1.43230   4.10510   0.94920    92    91    93   100
 C    -2.64680   3.55770   1.31190    93    87    92    31
 C     1.84730   3.10010  -2.29150    94    95    78    13
 C     0.57000   3.51220  -2.08000    95    94    81    96
 C     0.29010   4.15880  -0.81690    96   100    97    95
 C     1.33560   4.13110   0.17910    97    98    11    96
 C     0.88140   3.94460   1.48120    98    91     7    97
 C    -2.04590   3.78220  -1.29250    99    90   100    80
 C    -1.07020   4.22780  -0.42100   100    99    96    92
