   100
C100-C1-270                                                                     
 C    -4.01530  -0.96070  -2.11120     1     2     6    58
 C    -4.18100   0.38580  -2.01290     2     1     3     9
 C    -4.74730   0.80090  -0.79400     3     4    57     2
 C    -4.43080   2.00920  -0.26340     4     5     3    29
 C    -3.65620   2.84120  -0.94490     5     4    20    10
 C    -2.99070  -1.48920  -2.85540     6    63     1     7
 C    -1.98510  -0.74090  -3.51350     7     6     8    16
 C    -2.11240   0.67330  -3.44100     8     7    12     9
 C    -3.24970   1.21310  -2.70540     9    10     2     8
 C    -3.08430   2.47080  -2.15210    10    14     9     5
 C     0.36640   0.76960  -3.79850    11    15    18    12
 C    -0.90290   1.44930  -3.60100    12     8    13    11
 C    -0.85560   2.77710  -3.02880    13    14    24    12
 C    -1.95690   3.19780  -2.29900    14    10    21    13
 C     1.52830   1.47180  -3.48090    15   100    23    11
 C    -0.70460  -1.38170  -3.67410    16    17    18     7
 C    -0.58720  -2.67770  -3.17100    17    92    62    16
 C     0.52110  -0.65990  -3.78930    18    16    11    95
 C    -0.66710   4.37770  -0.74990    19    21    22    25
 C    -2.82270   3.69520  -0.28380    20    21     5    27
 C    -1.85110   3.98440  -1.16670    21    19    20    14
 C     0.42170   4.15960  -1.49870    22    19    42    24
 C     1.51770   2.73460  -2.91800    23    24    43    15
 C     0.36120   3.36950  -2.65250    24    23    22    13
 C    -0.34500   4.36120   0.58000    25    31    19    26
 C    -1.24900   3.91810   1.53140    26    25    34    27
 C    -2.59070   3.63540   1.10660    27    28    20    26
 C    -3.38070   2.69450   1.77870    28    30    29    27
 C    -4.33600   1.93280   1.09910    29     4    47    28
 C    -2.76050   2.01770   2.81030    30    45    35    28
 C     1.01080   4.21390   0.64440    31    25    32    42
 C     1.65650   3.57810   1.69470    32    31    40    33
 C     0.78010   2.98800   2.68600    33    34    32    37
 C    -0.63620   3.19320   2.59220    34    35    26    33
 C    -1.44890   2.23970   3.17460    35    30    34    50
 C     2.54340   1.39780   3.09730    36    37    68    41
 C     1.25500   1.78620   3.34450    37    36    49    33
 C     4.40590   2.09540  -0.27170    38    86    91    39
 C     3.50090   3.11440   0.06900    39    44    38    40
 C     2.95450   3.08160   1.41180    40    41    32    39
 C     3.40320   2.04390   2.21410    41    87    40    36
 C     1.50900   4.17550  -0.65080    42    44    22    31
 C     2.66030   2.90190  -2.17270    43    89    23    44
 C     2.68610   3.58940  -0.96020    44    42    43    39
 C    -3.07380   0.71540   3.13230    45    46    30    51
 C    -4.04020   0.00850   2.46460    46    45    48    47
 C    -4.67270   0.63920   1.41920    47    29    46    57
 C    -3.78870  -1.33410   2.34470    48    46    55    54
 C     0.37260   0.74560   3.78220    49    50    37    52
 C    -0.95690   1.06190   3.71160    50    51    49    35
 C    -1.94350   0.12330   3.65470    51    50    45    53
 C     0.73430  -0.67060   3.76430    52    69    70    49
 C    -1.65980  -1.22360   3.54060    53    51    54    70
 C    -2.64510  -1.92630   2.86760    54    75    53    48
 C    -4.16580  -2.04350   1.22950    55    48    59    56
 C    -4.74920  -1.40570   0.14330    56    57    58    55
 C    -4.98270  -0.06260   0.26350    57    56     3    47
 C    -4.32250  -1.85490  -1.07820    58    61    56     1
 C    -3.27630  -3.09360   1.10250    59    60    55    75
 C    -2.95020  -3.62550  -0.12400    60    59    66    61
 C    -3.49780  -2.93110  -1.20960    61    63    58    60
 C    -1.60220  -3.30350  -2.48650    62    63    67    17
 C    -2.76710  -2.72910  -2.33970    63    62    61     6
 C     0.55700  -4.35390   0.53390    64    76    65    80
 C    -0.77590  -4.23900   0.85190    65    64    74    66
 C    -1.69300  -4.21840  -0.25330    66    60    67    65
 C    -1.09170  -4.10880  -1.52060    67    81    62    66
 C     2.95570   0.07450   3.19180    68    82    36    69
 C     2.06800  -0.99150   3.43490    69    68    52    71
 C    -0.31170  -1.66440   3.55140    70    53    73    52
 C     2.39420  -2.23110   2.81490    71    84    72    69
 C     1.34770  -3.12630   2.47730    72    76    71    73
 C    -0.00630  -2.90070   2.84210    73    72    70    74
 C    -1.06430  -3.54280   2.06500    74    75    65    73
 C    -2.34250  -3.03140   2.12780    75    54    74    59
 C     1.56380  -3.88840   1.31800    76    64    78    72
 C     3.62710  -2.92320   0.83860    77    78    84    96
 C     2.65230  -3.71110   0.49770    78    77    79    76
 C     2.29630  -3.84650  -0.80610    79    80    78    93
 C     1.04790  -4.33200  -0.75730    80    81    79    64
 C     0.22520  -4.11050  -1.74760    81    80    67    92
 C     4.09650  -0.02400   2.44270    82    83    87    68
 C     4.38430  -1.18120   1.83110    83    82    84    88
 C     3.56170  -2.23150   2.01620    84    83    77    71
 C     5.07520  -0.01720  -0.07520    85    88    90    86
 C     4.87540   1.17110   0.58970    86    38    87    85
 C     4.36500   1.15600   1.84040    87    86    82    41
 C     4.86480  -1.18280   0.54180    88    85    96    83
 C     3.42030   1.81310  -2.38100    89    91    43   100
 C     4.64540   0.12000  -1.37390    90    91    85    98
 C     4.32550   1.43770  -1.49160    91    89    90    38
 C     0.58520  -3.22560  -2.74220    92    17    81    94
 C     2.78440  -2.98940  -1.82420    93    97    79    94
 C     1.81290  -2.59090  -2.80150    94    92    95    93
 C     1.81490  -1.28130  -3.37820    95    99    94    18
 C     4.31760  -2.22430  -0.12460    96    88    77    97
 C     3.84830  -2.14700  -1.46580    97    93    98    96
 C     3.96790  -0.89250  -2.10910    98    97    90    99
 C     2.93870  -0.47360  -3.03110    99   100    95    98
 C     2.73310   0.89430  -3.14180   100    89    15    99
