   100
C100-C1-251                                                                     
 C     4.12900  -1.62720  -1.62240     1     5    17    55
 C     1.07030  -4.12390  -1.08730     2     3    62     6
 C     2.22560  -3.56050  -1.49620     3     2     4    60
 C     3.12170  -3.35700  -0.45480     4     5     3     8
 C     4.08400  -2.42630  -0.53280     5     4     1    18
 C     0.73280  -4.33240   0.25940     6    14     7     2
 C     1.53080  -3.90120   1.29410     7     8     6     9
 C     2.76460  -3.46760   0.89670     8     7    19     4
 C     0.91600  -3.37910   2.46220     9     7    10    12
 C     1.66530  -2.32340   3.13260    10    11    22     9
 C     0.92440  -1.40550   3.84180    11   100    10    27
 C    -0.53790  -3.43890   2.55730    12    99    13     9
 C    -1.32380  -3.97890   1.47490    13    14    96    12
 C    -0.61150  -4.38310   0.34800    14     6    71    13
 C     4.80780   0.12880  -0.23770    15    25    17    16
 C     4.68260  -0.66310   0.85850    16    18    15    20
 C     4.49790  -0.33460  -1.47350    17     1    15    33
 C     4.32780  -1.94160   0.71300    18    16    19     5
 C     3.47750  -2.52420   1.59670    19    18     8    22
 C     4.18580   0.07660   1.88640    20    16    26    21
 C     3.31200  -0.45200   2.84160    21    20    28    22
 C     2.93250  -1.84870   2.68870    22    19    10    21
 C     3.12690   3.21460  -0.26330    23    24    34    31
 C     3.87760   2.23660  -0.82990    24    23    25    32
 C     4.46050   1.38400   0.09260    25    15    24    26
 C     4.10640   1.37850   1.45010    26    30    20    25
 C     1.29280  -0.06420   3.98230    27    47    28    11
 C     2.42970   0.49360   3.43790    28    27    21    29
 C     2.34690   1.89050   3.03550    29    30    28    49
 C     3.22300   2.27850   1.98290    30    26    31    29
 C     2.82470   3.26380   1.10660    31    51    30    23
 C     3.48170   1.75560  -2.12170    32    33    36    24
 C     3.80250   0.42680  -2.36740    33    17    32    54
 C     2.11870   3.82260  -0.93890    34    23    39    35
 C     1.67870   3.41520  -2.20860    35    34    42    36
 C     2.34190   2.27780  -2.79160    36    32    35    37
 C     1.55490   1.36840  -3.61120    37    38    53    36
 C     0.24160   1.72470  -3.82570    38    56    37    43
 C     1.27730   4.34830   0.00580    39    40    34    51
 C    -0.00330   4.56050  -0.26400    40    39    41    44
 C    -0.48800   4.26320  -1.49030    41    40    68    42
 C     0.32160   3.68470  -2.46790    42    43    41    35
 C    -0.35920   2.84880  -3.28840    43    42    70    38
 C    -0.94810   4.39600   0.69080    44    40    46    79
 C    -1.59210   3.25980   2.56440    45    52    46    90
 C    -0.60000   3.97640   1.96630    46    45    44    50
 C     0.14380   0.64890   4.19360    47    27    91    48
 C     0.01170   1.97550   3.81860    48    47    52    49
 C     1.10130   2.63130   3.19970    49    48    50    29
 C     0.76190   3.68950   2.28230    50    51    46    49
 C     1.66490   3.94280   1.26000    51    31    39    50
 C    -1.30480   2.31620   3.49650    52    45    94    48
 C     1.82760  -0.04250  -3.70280    53    54    37    58
 C     2.99350  -0.44160  -3.09360    54    53    55    33
 C     3.18720  -1.71970  -2.61000    55     1    54    60
 C    -0.74220   0.79560  -4.07340    56    63    38    57
 C    -0.55160  -0.59060  -4.07770    57    56    58    64
 C     0.78130  -1.05170  -3.87600    58    57    59    53
 C     0.96240  -2.38080  -3.29990    59    60    61    58
 C     2.19220  -2.68330  -2.62690    60    55     3    59
 C    -0.20760  -3.12020  -2.91390    61    62    65    59
 C    -0.07640  -3.98040  -1.79920    62     2    71    61
 C    -1.91610   1.39860  -3.68630    63    66    70    56
 C    -1.69270  -1.36770  -3.72310    64    65    67    57
 C    -1.52200  -2.63010  -3.13280    65    64    73    61
 C    -2.94950   0.68120  -3.29220    66    63    67    83
 C    -2.86930  -0.66510  -3.34740    67    66    74    64
 C    -1.82730   3.95110  -1.29840    68    69    79    41
 C    -2.50960   3.10450  -2.11740    69    68    70    82
 C    -1.71000   2.61400  -3.15560    70    63    43    69
 C    -1.09420  -4.26200  -0.93010    71    72    62    14
 C    -2.30440  -3.80650  -1.15260    72    71    73    95
 C    -2.54460  -3.03620  -2.24150    73    72    75    65
 C    -3.77330  -1.08360  -2.41650    74    75    67    87
 C    -3.60940  -2.27010  -1.87330    75    74    73    77
 C    -4.41560  -1.42800   0.21910    76    78    77    86
 C    -3.94170  -2.47340  -0.56720    77    75    95    76
 C    -4.03690  -1.55320   1.53390    78    88    76    97
 C    -2.11740   4.01620   0.03920    79    68    80    44
 C    -3.08250   3.21020   0.61890    80    90    79    81
 C    -3.84660   2.29000  -0.17080    81    80    82    85
 C    -3.54490   2.28810  -1.58270    82    83    69    81
 C    -3.77020   1.10140  -2.25880    83    87    82    66
 C    -4.03160   0.84790   1.83390    84    89    88    85
 C    -4.35100   1.06560   0.45730    85    84    86    81
 C    -4.57270  -0.11710  -0.33370    86    87    76    85
 C    -4.27380  -0.02280  -1.68830    87    83    74    86
 C    -3.87030  -0.45440   2.31780    88    78    92    84
 C    -3.25210   1.76950   2.51920    89    90    94    84
 C    -2.79380   2.90360   1.93300    90    89    80    45
 C    -0.91360  -0.23280   4.23360    91    93    47   100
 C    -2.95900  -0.79480   3.30770    92    93    98    88
 C    -2.18040   0.14290   3.89840    93    94    92    91
 C    -2.35470   1.42710   3.51760    94    93    52    89
 C    -3.10620  -3.46660  -0.09930    95    72    77    96
 C    -2.64850  -3.52680   1.20990    96    97    95    13
 C    -3.18720  -2.56010   2.01160    97    98    96    78
 C    -2.49490  -2.07660   3.07400    98    97    92    99
 C    -1.19010  -2.47710   3.37110    99   100    98    12
 C    -0.43170  -1.49850   3.98100   100    11    91    99
