   100
C100-C1-409                                                                     
 C     3.28920  -3.10650  -0.92530     1    64     2     4
 C     4.19970  -2.28550  -0.24020     2     3    44     1
 C     4.67660  -1.11390  -0.73510     3     6     2    28
 C     2.78610  -2.62890  -2.18750     4     5     8     1
 C     3.29090  -1.41290  -2.61350     5     6    12     4
 C     4.23180  -0.68840  -1.93100     6     3    20     5
 C     0.78460  -3.85350  -1.84360     7    16     8    63
 C     1.48010  -2.95500  -2.63960     8     7     4    10
 C    -0.75890  -2.17700  -3.38990     9    13    14    10
 C     0.67290  -2.04250  -3.42480    10     9    11     8
 C     1.23280  -0.74560  -3.72960    11    12    23    10
 C     2.53370  -0.50820  -3.33370    12    11    21     5
 C    -1.51070  -1.03980  -3.65420    13   100    22     9
 C    -1.42340  -3.15640  -2.59330    14    16     9    15
 C    -2.75110  -2.94410  -2.09300    15    99    17    14
 C    -0.58180  -3.94420  -1.82930    16     7    70    14
 C    -3.03910  -3.44960  -0.80670    17    69    96    15
 C     3.61210   2.71760  -1.34260    18    29    19    26
 C     4.38890   1.59040  -1.22840    19    18    20    27
 C     4.07610   0.63370  -2.18350    20     6    19    21
 C     3.02110   0.75880  -3.07750    21    25    12    20
 C    -0.94160   0.20380  -3.86190    22    23    13    35
 C     0.41290   0.42420  -3.89370    23    22    11    24
 C     0.86690   1.75180  -3.55620    24    25    23    37
 C     2.21970   1.87930  -3.14920    25    21    26    24
 C     2.59260   2.87780  -2.26870    26    39    25    18
 C     4.77410   1.14100   0.05830    27    28    31    19
 C     4.90540  -0.20890   0.27430    28    27     3    43
 C     3.23110   3.42320  -0.23880    29    30    32    18
 C     3.50260   2.95830   0.99400    30    29    31    60
 C     4.24560   1.83450   1.14530    31    30    41    27
 C     2.05980   4.05220  -0.46730    32    29    33    39
 C     1.14400   4.29270   0.53890    33    34    32    59
 C    -0.12610   4.44760   0.09420    34    33    62    40
 C    -1.87210   1.15970  -3.49430    35    90    22    36
 C    -1.51220   2.42680  -3.06030    36    35    94    37
 C    -0.10760   2.73700  -3.09380    37    38    36    24
 C     0.35540   3.71780  -2.16500    38    39    40    37
 C     1.66440   3.73470  -1.76660    39    26    38    32
 C    -0.52630   4.20570  -1.22890    40    95    38    34
 C     3.77060   1.20520   2.28840    41    42    46    31
 C     3.85540  -0.14680   2.47030    42    41    43    49
 C     4.50720  -0.83520   1.44050    43    44    28    42
 C     4.15660  -2.10820   1.12360    44    45    43     2
 C     3.23580  -2.74420   1.83690    45    44    65    50
 C     2.71110   1.94330   2.78280    46    60    41    47
 C     1.64770   1.38640   3.48230    47    46    54    48
 C     1.68100  -0.04750   3.69430    48    49    52    47
 C     2.80220  -0.78040   3.18540    49    50    42    48
 C     2.55920  -2.11040   2.85710    50    72    45    49
 C    -0.71550   0.02190   3.89790    51    52    58    73
 C     0.42480  -0.74720   3.86180    52    51    71    48
 C     0.24640   3.31270   2.61750    53    59    61    54
 C     0.42710   2.12300   3.43240    54    58    47    53
 C    -3.31290   2.76310   1.73610    55    89    83    56
 C    -2.19420   2.87890   2.55460    56    57    55    61
 C    -1.97080   1.75530   3.31350    57    58    56    85
 C    -0.71640   1.39390   3.70830    58    57    54    51
 C     1.35960   3.73100   1.83110    59    60    33    53
 C     2.56050   3.06370   1.98870    60    30    46    59
 C    -1.07360   3.63860   2.16750    61    62    56    53
 C    -1.19420   4.21700   0.89590    62    34    87    61
 C     1.24850  -4.27220  -0.60210    63    64    68     7
 C     2.44930  -3.87850  -0.10900    64    63    65     1
 C     2.43130  -3.66450   1.27260    65    45    66    64
 C     1.28070  -3.73280   2.02700    66    67    65    72
 C     0.09390  -4.17500   1.54940    67    66    68    76
 C     0.14340  -4.50490   0.18840    68    70    63    67
 C    -2.11480  -4.09530  -0.06480    69    70    17    77
 C    -0.94260  -4.39950  -0.58780    70    69    68    16
 C     0.20930  -2.11090   3.47680    71    72    52    75
 C     1.34020  -2.73200   2.97890    72    50    66    71
 C    -1.98060  -0.45640   3.58170    73    85    51    74
 C    -2.22850  -1.74720   3.12860    74    73    79    75
 C    -1.08420  -2.61600   3.06230    75    74    76    71
 C    -1.10980  -3.67830   2.09150    76    77    67    75
 C    -2.22440  -3.73550   1.26600    77    80    69    76
 C    -4.18970  -0.75400   1.91460    78    84    81    79
 C    -3.38030  -1.88260   2.27890    79    80    78    74
 C    -3.30320  -2.91060   1.34630    80    77    96    79
 C    -4.75390  -0.75400   0.61620    81    97    86    78
 C    -4.59920   1.57040   0.38910    82    86    88    83
 C    -4.12020   1.65220   1.67730    83    55    82    84
 C    -3.87010   0.51270   2.43160    84    85    83    78
 C    -2.76980   0.62110   3.24830    85    84    73    57
 C    -4.89170   0.38700  -0.13110    86    82    81    91
 C    -2.26220   3.99780   0.07360    87    89    62    95
 C    -4.02390   2.55170  -0.37520    88    89    82    93
 C    -3.31510   3.31640   0.48490    89    87    88    55
 C    -3.02290   0.51080  -3.10800    90    35    92   100
 C    -4.59770   0.13100  -1.44910    91    86    98    92
 C    -3.92600   1.07420  -2.22660    92    90    91    93
 C    -3.61470   2.34460  -1.71390    93    92    88    94
 C    -2.43170   3.02980  -2.13920    94    95    93    36
 C    -1.84390   3.89980  -1.22800    95    40    87    94
 C    -3.85290  -2.81490   0.08120    96    97    17    80
 C    -4.52970  -1.74200  -0.28390    97    96    81    98
 C    -4.37210  -1.22540  -1.54750    98    97    91    99
 C    -3.45420  -1.77820  -2.43660    99   100    98    15
 C    -2.80050  -0.85350  -3.21260   100    99    13    90
