   100
C100-Cs-48                                                                      
 C     4.42840  -2.19460   0.69200     1     2     6    69
 C     4.71720  -1.07610   1.35940     2     1     3    23
 C     5.19330  -0.00420   0.67870     3     4     2    70
 C     4.71850   1.07240   1.35170     4     5     3    10
 C     4.43490   2.18670   0.67980     5     4     9    45
 C     3.44500  -2.99510   1.14450     6     1    75    21
 C     1.81220   4.13550   0.00520     7     8    29    18
 C     2.97830   3.59190  -0.00080     8     7     9    44
 C     3.44930   2.98680   1.12570     9     5     8    13
 C     3.87830   0.68360   2.38480    10    23     4    12
 C     1.68390   0.74620   3.41000    11    12    15    26
 C     2.79200   1.44410   2.83530    12    10    13    11
 C     2.59120   2.71740   2.22270    13    17     9    12
 C    -0.68730   0.70210   3.70410    14    34    15    27
 C     0.43810   1.46690   3.48210    15    14    11    16
 C     0.19830   2.76680   2.88490    16    17    15    36
 C     1.31780   3.32700   2.21810    17    18    13    16
 C     1.00510   4.12290   1.11390    18    38     7    17
 C     1.00150  -4.12450   1.14280    19    95    76    20
 C     1.31490  -3.32110   2.24300    20    19    21    24
 C     2.59010  -2.71020   2.24230    21    20     6    22
 C     2.79330  -1.43560   2.85030    22    23    21    26
 C     3.88130  -0.68830   2.39560    23    10     2    22
 C     0.19440  -2.75430   2.90320    24    20    25    97
 C     0.43130  -1.45050   3.49440    25    27    26    24
 C     1.68060  -0.74100   3.41720    26    22    25    11
 C    -0.69420  -0.68590   3.71040    27   100    25    14
 C    -1.18180   4.07310  -1.42420    28    30    31    40
 C     1.06540   4.15030  -1.11780    29    30     7    42
 C    -0.16720   4.41880  -0.68530    30    28    29    38
 C    -2.38170   3.87260  -0.85860    31    28    67    33
 C    -3.55470   3.01890   0.93880    32    33    39    65
 C    -2.54340   3.84200   0.53680    33    32    31    37
 C    -1.97180   1.11360   3.43700    34    14    91    35
 C    -2.25340   2.32040   2.83150    35    34    39    36
 C    -1.16810   3.15620   2.49830    36    35    37    16
 C    -1.38010   3.98530   1.33960    37    38    33    36
 C    -0.24690   4.37810   0.69110    38    18    37    30
 C    -3.44330   2.29560   2.09190    39    32    94    35
 C    -0.98050   3.26470  -2.51810    40    49    28    41
 C     0.26640   2.77030  -2.90570    41    40    42    54
 C     1.37460   3.33910  -2.23760    42    43    41    29
 C     2.60700   2.70700  -2.21710    43    42    44    46
 C     3.47050   2.98700  -1.12720    44    45     8    43
 C     4.44990   2.18780  -0.70390    45    48    44     5
 C     2.73720   1.41630  -2.82020    46    47    43    55
 C     3.83550   0.67300  -2.36610    47    57    48    46
 C     4.72580   1.06580  -1.36210    48    45    70    47
 C    -2.14990   2.62100  -2.68330    49    40    52    67
 C     0.26060  -2.78430  -2.88280    50    51    72    60
 C    -0.98760  -3.27680  -2.48710    51    56    79    50
 C    -2.17630   1.37030  -3.24790    52    49    64    53
 C    -0.93570   0.71320  -3.60370    53    59    52    54
 C     0.32390   1.43130  -3.45570    54    55    41    53
 C     1.58390   0.72180  -3.37270    55    54    46    61
 C    -2.15420  -2.62960  -2.66610    56    51    58    86
 C     3.83390  -0.69970  -2.36380    57    47    71    62
 C    -2.17680  -1.38110  -3.23700    58    56    63    59
 C    -0.93440  -0.73310  -3.59840    59    53    58    60
 C     0.32250  -1.45050  -3.44540    60    61    50    59
 C     1.58510  -0.74750  -3.36760    61    60    62    55
 C     2.73360  -1.44440  -2.81210    62    57    73    61
 C    -3.31080  -0.67140  -2.87120    63    64    58    83
 C    -3.31460   0.67250  -2.87560    64    63    52    68
 C    -4.37020   2.30900   0.06310    65    87    66    32
 C    -4.09780   2.28420  -1.29390    66    67    68    65
 C    -3.06780   3.05140  -1.71060    67    66    31    49
 C    -4.26270   1.09910  -1.94070    68    66    90    64
 C     4.43870  -2.20490  -0.69220    69    71    74     1
 C     5.19720  -0.01640  -0.71040    70    71    48     3
 C     4.72320  -1.09130  -1.36090    71    69    70    57
 C     1.36370  -3.35820  -2.20790    72    73    50    77
 C     2.59940  -2.72730  -2.19700    73    72    74    62
 C     3.45350  -3.00950  -1.10030    74    69    75    73
 C     2.97130  -3.61680   0.02830    75    76     6    74
 C     1.80510  -4.15300   0.03100    76    75    77    19
 C     1.05150  -4.16720  -1.08680    77    80    76    72
 C    -2.39050  -3.87940  -0.84150    78    79    86    82
 C    -1.19080  -4.09440  -1.39780    79    80    78    51
 C    -0.17790  -4.43390  -0.66000    80    79    77    95
 C    -3.56070  -3.00860   0.95470    81    82    98    84
 C    -2.55080  -3.83590   0.55410    82    81    78    96
 C    -4.25990  -1.10730  -1.93460    83    85    90    63
 C    -4.37370  -2.29900   0.07480    84    88    85    81
 C    -4.09750  -2.29080  -1.28140    85    86    83    84
 C    -3.07350  -3.05950  -1.69640    86    85    78    56
 C    -4.82440   1.18400   0.71400    87    65    94    89
 C    -4.82290  -1.16930   0.71930    88    84    92    89
 C    -5.09530   0.00550   0.03390    89    88    87    90
 C    -4.79530  -0.00050  -1.32310    90    68    83    89
 C    -2.77700   0.00350   3.31990    91    93   100    34
 C    -4.24810  -1.17280   1.97860    92    93    98    88
 C    -3.94250   0.01130   2.59740    93    94    92    91
 C    -4.25680   1.18350   1.97500    94    93    39    87
 C    -0.25530  -4.37510   0.71650    95    19    96    80
 C    -1.38970  -3.97360   1.36570    96    95    82    97
 C    -1.17580  -3.14260   2.52250    97    99    96    24
 C    -3.44440  -2.29100   2.11080    98    81    92    99
 C    -2.26070  -2.30580   2.85510    99   100    98    97
 C    -1.97550  -1.10430   3.45590   100    27    99    91
