   100
C100-C1-284                                                                     
 C    -3.19720  -3.34110  -0.47920     1    65     4     2
 C    -4.04190  -2.25360  -0.67050     2     1    59     3
 C    -4.47670  -1.54330   0.50550     3    14     6     2
 C    -2.73250  -3.72610   0.76240     4     5     7     1
 C    -3.02340  -2.98210   1.81520     5     4     6     8
 C    -3.87800  -1.95270   1.71350     6     5    16     3
 C    -1.52690  -4.32040   0.66870     7     4    68    10
 C    -2.03570  -2.71180   2.74580     8    19     9     5
 C    -0.77260  -3.24500   2.69010     9     8    21    10
 C    -0.50770  -4.17350   1.62510    10    12     7     9
 C     1.78310  -3.66440   1.80380    11    12   100    22
 C     0.79130  -4.32510   1.15380    12    11    10    13
 C     1.02900  -4.47280  -0.21750    13    67    98    12
 C    -4.80660  -0.17580   0.42590    14    15    18     3
 C    -4.72850   0.44470  -0.80230    15    61    14    25
 C    -3.47890  -1.07580   2.67920    16    17     6    19
 C    -3.76390   0.19520   2.57300    17    16    18    34
 C    -4.47050   0.66260   1.50160    18    23    17    14
 C    -2.29730  -1.47610   3.26100    19     8    16    20
 C    -1.30580  -0.58470   3.71770    20    19    32    33
 C     0.25640  -2.41840   3.24470    21    22     9    32
 C     1.52160  -2.72710   2.80660    22    90    21    11
 C    -4.11370   1.97330   1.37620    23    18    24    27
 C    -4.10330   2.58180   0.14460    24    26    25    23
 C    -4.38650   1.78990  -0.93570    25    24    42    15
 C    -3.15050   3.54260  -0.02300    26    24    29    40
 C    -3.15670   2.25630   2.35130    27    28    34    23
 C    -2.21250   3.21290   2.20030    28    27    29    36
 C    -2.28720   3.89970   0.97930    29    31    26    28
 C    -0.05600   4.36420   1.03340    30    31    58    35
 C    -1.19090   4.39150   0.38630    31    30    29    45
 C     0.03960  -1.05220   3.72270    32    20    21    37
 C    -1.61890   0.80420   3.61660    33    34    39    20
 C    -2.88490   1.12320   3.06150    34    27    17    33
 C     0.07990   3.69850   2.24010    35    97    36    30
 C    -0.95020   3.00400   2.82320    36    35    28    39
 C     1.12590  -0.07070   3.68880    37    91    38    32
 C     0.81310   1.34800   3.57260    38    96    37    39
 C    -0.58510   1.77570   3.51000    39    33    36    38
 C    -2.45560   3.70000  -1.22790    40    45    41    26
 C    -2.64600   2.86650  -2.29070    41    40    42    48
 C    -3.67770   1.93810  -2.11070    42    43    25    41
 C    -3.64020   0.71320  -2.67730    43    44    42    61
 C    -2.59510   0.38280  -3.42640    44    43    62    49
 C    -1.22360   4.22390  -0.97680    45    40    31    46
 C    -0.06090   3.98160  -1.72980    46    45    56    47
 C    -0.18030   3.04800  -2.81450    47    46    48    51
 C    -1.49680   2.52080  -3.06230    48    49    41    47
 C    -1.55160   1.25170  -3.62070    49    53    44    48
 C     2.24750   2.57430  -2.57990    50    54    51    55
 C     0.99650   2.27830  -3.19500    51    50    47    52
 C     0.83000   0.93060  -3.72940    52    53    71    51
 C    -0.45660   0.48670  -3.89900    53    49    52    69
 C     3.23360   1.57060  -2.60280    54    84    70    50
 C     2.33540   3.51450  -1.50220    55    56    57    50
 C     1.17020   4.14350  -1.05200    56    55    46    58
 C     3.35390   3.27710  -0.54850    57    83    88    55
 C     1.09600   4.34300   0.35060    58    30    86    56
 C    -3.86010  -1.56960  -1.90340    59    61     2    60
 C    -2.77080  -1.93020  -2.78610    60    62    64    59
 C    -4.26110  -0.23360  -1.90540    61    43    15    59
 C    -2.16630  -0.89920  -3.50110    62    44    69    60
 C    -0.52670  -2.99630  -2.93960    63    66    73    64
 C    -1.91520  -3.01130  -2.52240    64    65    60    63
 C    -2.21940  -3.73420  -1.36970    65    68     1    64
 C     0.37120  -3.75440  -2.20480    66    67    75    63
 C    -0.00750  -4.43740  -1.08580    67    68    13    66
 C    -1.25800  -4.40280  -0.66630    68    67     7    65
 C    -0.83020  -0.85110  -3.83950    69    73    62    53
 C     3.00220   0.27330  -3.05140    70    71    77    54
 C     1.79990  -0.11290  -3.58730    71    70    52    72
 C     1.44420  -1.51360  -3.46340    72    73    74    71
 C     0.05640  -1.86610  -3.57800    73    69    63    72
 C     2.31450  -2.37650  -2.69390    74    75    78    72
 C     1.70780  -3.46060  -2.07840    75    66    74    98
 C     4.61000   0.18270  -1.54960    76    84    79    77
 C     3.85070  -0.59190  -2.37250    77    76    78    70
 C     3.51210  -1.90940  -2.09150    78    77    74    81
 C     4.97730  -0.28960  -0.33210    79    80    76    85
 C     4.63070  -1.53850   0.01860    80    79    92    81
 C     3.95880  -2.43760  -0.81960    81    99    80    78
 C     4.56600   1.81970   0.59450    82    85    87    83
 C     4.29030   2.31880  -0.65500    83    84    57    82
 C     4.25920   1.48300  -1.69790    84    83    76    54
 C     4.88690   0.54230   0.75820    85    82    93    79
 C     2.00220   3.86350   1.22960    86    88    58    97
 C     3.75370   2.41200   1.50960    87    88    82    95
 C     3.12870   3.38870   0.80510    88    86    87    57
 C     3.45640  -2.26970   1.90190    89    92   100    90
 C     2.55360  -1.83870   2.85030    90    22    89    91
 C     2.44020  -0.50310   3.26640    91    90    94    37
 C     4.32140  -1.43610   1.36810    92    89    93    80
 C     4.37280  -0.15290   1.81120    93    92    85    94
 C     3.42820   0.38040   2.73360    94    95    93    91
 C     3.11150   1.73980   2.59290    95    94    96    87
 C     1.83510   2.20730   3.01090    96    97    95    38
 C     1.37730   3.34870   2.34670    97    35    86    96
 C     2.13490  -3.95800  -0.85140    98    99    13    75
 C     3.18360  -3.40940  -0.18420    99    98    81   100
 C     2.95730  -3.30280   1.19360   100    89    11    99
