   100
C100-C1-344                                                                     
 C     2.14120  -3.60640  -1.35370     1     6     2    60
 C     2.73140  -2.76240  -2.26230     2     1     3    10
 C     3.82080  -2.07290  -1.74880     3     4    59     2
 C     4.12640  -0.81440  -2.17860     4     5     3    28
 C     3.34880  -0.25530  -3.10760     5     4    14    11
 C     0.83490  -3.94670  -1.44950     6     1     8    77
 C    -1.31220  -3.51170  -2.12140     7    21     8    78
 C     0.01280  -3.46550  -2.45250     8     7     6     9
 C     0.50400  -2.48320  -3.36390     9    10     8    23
 C     1.88900  -2.16870  -3.25150    10    11     9     2
 C     2.26190  -0.89200  -3.63940    11     5    25    10
 C     2.88620   2.95960  -1.78480    12    13    34    20
 C     3.66650   1.87890  -2.06500    13    12    14    27
 C     3.12870   1.08040  -3.07380    14     5    15    13
 C     1.89640   1.29850  -3.66820    15    19    25    14
 C    -2.15130   0.73280  -3.63020    16    42    17    26
 C    -0.83410   1.00340  -3.93370    17    16    24    18
 C    -0.30380   2.27830  -3.48630    18    19    17    44
 C     1.10380   2.37770  -3.36740    19    15    20    18
 C     1.67140   3.22330  -2.43400    20    46    19    12
 C    -2.22120  -2.67690  -2.69370    21     7    97    22
 C    -1.81060  -1.65040  -3.53640    22    26    21    23
 C    -0.44570  -1.49320  -3.86340    23    22    24     9
 C     0.01350  -0.14680  -4.13040    24    25    17    23
 C     1.36200   0.07230  -4.01680    25    24    11    15
 C    -2.64380  -0.54520  -3.47110    26    16   100    22
 C     4.42680   1.30150  -1.02230    27    28    13    30
 C     4.66740  -0.07530  -1.16220    28    29     4    27
 C     4.76080  -0.93130  -0.10890    29    32    28    59
 C     4.28700   1.80280   0.31930    30    31    35    27
 C     4.40780   0.87690   1.35660    31    52    32    30
 C     4.63720  -0.47130   1.13330    32    29    49    31
 C     1.61620   4.12050  -0.45710    33    36    34    46
 C     2.81400   3.47990  -0.51780    34    33    12    35
 C     3.43560   2.90240   0.59910    35    34    30    38
 C     0.98490   4.23500   0.70330    36    33    39    37
 C     1.49030   3.66790   1.83110    37    36    67    38
 C     2.70230   2.98860   1.84680    38    37    51    35
 C    -0.36110   4.28890   0.73480    39    36    84    41
 C    -2.38390   3.74700  -0.18960    40    41    47    92
 C    -1.13000   4.21420  -0.42010    41    40    39    45
 C    -2.96040   1.58200  -2.91220    42    16    43    93
 C    -2.47110   2.75320  -2.37190    43    42    47    44
 C    -1.13530   3.13780  -2.64480    44    43    45    18
 C    -0.48880   3.96420  -1.66310    45    46    41    44
 C     0.89170   3.96540  -1.61450    46    20    33    45
 C    -3.07960   3.08930  -1.15880    47    40    96    43
 C     2.43570  -0.63980   3.65830    48    50    53    55
 C     4.01620  -1.23070   2.08410    49    50    32    57
 C     3.50210  -0.32270   2.95090    50    48    49    52
 C     2.77640   1.97840   2.82260    51    52    38    54
 C     3.68980   0.96750   2.52990    52    50    31    51
 C     1.52580   0.30930   4.01390    53    71    48    54
 C     1.61950   1.64430   3.62690    54    53    68    51
 C     1.81950  -1.85270   3.50120    55    61    48    56
 C     2.22090  -2.80170   2.56640    56    55    65    57
 C     3.40720  -2.47700   1.82380    57    58    49    56
 C     3.54140  -2.93360   0.50110    58    60    59    57
 C     4.22430  -2.15700  -0.43030    59    29     3    58
 C     2.51020  -3.67560  -0.01180    60    58    66     1
 C     0.52590  -1.67800   3.87780    61    55    63    71
 C    -1.71920  -1.86770   3.47210    62    73    63    72
 C    -0.49030  -2.46870   3.40620    63    62    61    64
 C    -0.22250  -3.45380   2.41570    64    63    65    75
 C     1.16290  -3.59160   2.01240    65    66    56    64
 C     1.38840  -4.01480   0.70890    66    77    60    65
 C     0.38210   3.36100   2.60870    67    84    68    37
 C     0.36590   2.31660   3.50780    68    67    54    69
 C    -0.91810   1.68470   3.74510    69    70    68    86
 C    -0.86030   0.31350   4.11880    70    71    72    69
 C     0.34370  -0.32740   4.21440    71    53    70    61
 C    -1.90670  -0.51990   3.81960    72    89    70    62
 C    -2.74960  -2.23280   2.66660    73    62    79    74
 C    -2.60930  -3.17750   1.64970    74    73    82    75
 C    -1.31040  -3.78040   1.50210    75    76    74    64
 C    -0.94910  -4.17100   0.18550    76    77    78    75
 C     0.36730  -4.25000  -0.16840    77    76    66     6
 C    -1.79790  -3.88070  -0.86680    78    83    76     7
 C    -3.59850  -1.15550   2.59440    79    80    89    73
 C    -4.38960  -0.98900   1.54200    80    79    81    90
 C    -4.36230  -1.88200   0.51720    81    80    98    82
 C    -3.48090  -2.96960   0.53670    82    83    81    74
 C    -3.01840  -3.31380  -0.71130    83    78    82    97
 C    -0.75740   3.77560   1.95650    84    85    67    39
 C    -1.99270   3.21710   2.15460    85    84    92    86
 C    -2.13010   2.14250   3.07230    86    85    88    69
 C    -4.09890   1.39700   1.71260    87    91    90    88
 C    -3.22620   1.23950   2.83150    88    89    87    86
 C    -3.04890  -0.07730   3.24170    89    72    79    88
 C    -4.66070   0.27050   1.09480    90    80    94    87
 C    -3.84770   2.42410   0.82850    91    92    87    96
 C    -2.83240   3.29560   1.05190    92    91    85    40
 C    -3.96650   0.83180  -2.32230    93   100    95    42
 C    -4.87040   0.14890  -0.26830    94    95    98    90
 C    -4.53020   1.18100  -1.11270    95    96    94    93
 C    -4.04470   2.31760  -0.54230    96    95    47    91
 C    -3.32130  -2.59800  -1.85790    97    99    21    83
 C    -4.68760  -1.17560  -0.62600    98    99    81    94
 C    -4.14130  -1.50790  -1.84110    99    97   100    98
 C    -3.77460  -0.48220  -2.67510   100    99    93    26
