   100
C100-C1-77                                                                      
 C    -4.60030   0.53560   1.43620     1     2     5    57
 C    -4.79240   0.75190   0.07350     2    41    15     1
 C    -2.78110   0.15500   3.47580     3     4    60     6
 C    -3.01530   1.38310   3.05620     4     3    12     5
 C    -3.93140   1.59650   2.06620     5     4    13     1
 C    -1.51110  -0.18040   3.88070     6    67     3    10
 C     1.91430   0.98630   3.50020     7     8     9    23
 C     3.12750   0.39860   3.14280     8    98    76     7
 C     0.85480   0.10880   3.83760     9     7    10    75
 C    -0.43360   0.69680   3.89770    10     6     9    11
 C    -0.69580   2.03800   3.43850    11    12    24    10
 C    -2.00800   2.30330   3.02980    12    17     4    11
 C    -3.51440   2.74430   1.44710    13    14     5    17
 C    -3.76270   2.93900   0.11810    14    16    13    15
 C    -4.37760   1.91160  -0.56070    15    14     2    28
 C    -2.81470   3.65690  -0.54500    16    14    26    20
 C    -2.33300   3.18790   2.04400    17    12    19    13
 C    -0.00060   3.75020   1.77880    18    19    22    24
 C    -1.35550   3.88560   1.38270    19    17    20    18
 C    -1.66240   4.15520   0.06040    20    38    19    16
 C     2.26370   3.56770   1.00400    21    22    25    92
 C     0.99980   4.01720   0.77320    22    21    37    18
 C     1.64980   2.31850   2.98890    23    25    24     7
 C     0.33880   2.82080   2.86560    24    23    11    18
 C     2.61440   2.82280   2.11360    25    99    21    23
 C    -2.49180   3.35920  -1.85210    26    32    16    27
 C    -3.02880   2.26680  -2.53790    27    28    26    33
 C    -4.00190   1.58080  -1.85390    28    29    27    15
 C    -4.19050   0.24430  -2.02280    29    28    30    41
 C    -3.38430  -0.49120  -2.89260    30    31    29    34
 C    -3.28740  -1.81360  -2.53210    31    53    30    42
 C    -1.22370   3.77840  -2.02610    32    35    26    38
 C    -2.16530   1.54640  -3.41640    33    36    34    27
 C    -2.30080   0.13830  -3.59640    34    33    30    51
 C    -0.44370   3.16110  -2.90040    35    32    39    36
 C    -0.88420   2.06100  -3.57410    36    35    49    33
 C     0.66010   4.20610  -0.59670    37    38    22    40
 C    -0.68310   4.26620  -0.87490    38    20    32    37
 C     0.89810   3.12910  -2.71900    39    35    84    40
 C     1.53840   3.68470  -1.61510    40    93    39    37
 C    -4.72570  -0.27800  -0.83580    41     2    43    29
 C    -3.84290  -2.34660  -1.37240    42    44    43    31
 C    -4.53260  -1.58120  -0.43770    43    41    42    56
 C    -3.04670  -3.38830  -1.01590    44    45    46    42
 C    -2.85050  -3.67100   0.27270    45    44    55    69
 C    -2.02720  -3.53480  -1.89020    46    44    47    53
 C    -0.79110  -4.02480  -1.51680    47    48    46    68
 C     0.23210  -3.59570  -2.29750    48    70    47    54
 C     0.24080   1.33630  -3.85770    49    36    50    84
 C     0.19620  -0.02180  -4.04280    50    49    87    51
 C    -1.11060  -0.64540  -3.91940    51    52    50    34
 C    -1.10590  -2.00580  -3.53430    52    54    53    51
 C    -2.17580  -2.54400  -2.85440    53    31    52    46
 C     0.09680  -2.61760  -3.27590    54    88    52    48
 C    -3.47640  -2.93110   1.22530    55    45    58    56
 C    -4.35270  -1.85910   0.94610    56    55    43    57
 C    -4.35690  -0.78450   1.87990    57    60     1    56
 C    -2.59530  -2.94670   2.26830    58    59    55    61
 C    -2.57350  -1.93210   3.10800    59    58    60    67
 C    -3.44280  -0.90480   2.94330    60    59     3    57
 C    -1.42860  -3.59360   1.95820    61    69    58    65
 C     2.18180  -2.96180   2.09900    62    63    64    74
 C     3.22040  -2.96330   1.15310    63    78    73    62
 C     0.96640  -3.60750   1.75160    64    65    62    72
 C    -0.18120  -3.25940   2.50370    65    61    64    66
 C    -0.16000  -2.13580   3.40690    66    67    75    65
 C    -1.38070  -1.52410   3.64790    67     6    59    66
 C    -0.52220  -4.29520  -0.14170    68    69    72    47
 C    -1.59710  -4.08510   0.69320    69    61    68    45
 C     1.50270  -3.58230  -1.85050    70    48    71    81
 C     1.82940  -3.89000  -0.53630    71    73    70    72
 C     0.79070  -4.13420   0.38960    72    71    68    64
 C     3.01200  -3.35290  -0.14860    73    71    63    83
 C     2.20310  -1.84690   3.02700    74    76    75    62
 C     1.00330  -1.34630   3.58930    75    74    66     9
 C     3.27480  -0.95940   2.91860    76    79     8    74
 C     4.60640  -1.82270  -0.16000    77    83    80    78
 C     4.25120  -2.07390   1.14030    78    79    63    77
 C     4.32620  -1.08920   2.04300    79    78    97    76
 C     5.01640  -0.58830  -0.54080    80    77   100    89
 C     2.20580  -2.64890  -2.60330    81    82    88    70
 C     3.36250  -2.08330  -2.18370    82    81    83    90
 C     3.81940  -2.55930  -0.96250    83    77    82    73
 C     1.36080   2.00370  -3.37090    84    85    39    49
 C     2.56330   1.40570  -3.07410    85    84    96    86
 C     2.64160  -0.01040  -3.31450    86    85    90    87
 C     1.44260  -0.68410  -3.77860    87    88    50    86
 C     1.30980  -2.00910  -3.41510    88    54    81    87
 C     4.48480  -0.04550  -1.70710    89    95    80    90
 C     3.63050  -0.74110  -2.56380    90    89    82    86
 C     4.12650   2.46330   0.54450    91    94    92    99
 C     3.17690   3.25400  -0.00390    92    91    93    21
 C     2.79610   3.16520  -1.33990    93    40    92    96
 C     4.78320   1.53360  -0.18450    94    91   100    95
 C     4.34540   1.31050  -1.47510    95    94    89    96
 C     3.36510   2.06960  -2.09430    96    95    85    93
 C     4.83530   0.12010   1.70010    97    79    98   100
 C     4.09450   1.02720   2.38860    98    99    97     8
 C     3.78610   2.20670   1.84100    99    98    25    91
 C     5.18750   0.37680   0.39800   100    94    80    97
