   100
C100-D2-445                                                                     
 C    -2.85300  -1.96730   2.65000     1     9     2    57
 C    -1.91010  -2.96000   2.56280     2     1     3     4
 C    -2.07450  -3.77650   1.45080     3    15     2    56
 C    -0.62110  -2.75070   3.13780     4     2     5    13
 C     0.43810  -3.53100   2.56080     5     6    14     4
 C     1.72010  -3.04160   2.70360     6     7     5    16
 C     1.98580  -1.84630   3.31370     7     6    23     8
 C     1.01440  -0.98020   3.82730     8     7    13    28
 C    -2.58160  -0.79040   3.28930     9    63     1    12
 C    -1.98690   1.83060   3.34880    10    95    62    11
 C    -1.01040   0.95920   3.84630    11    10    30    12
 C    -1.32960  -0.44940   3.83000    12     9    13    11
 C    -0.32710  -1.45390   3.77140    13    12     8     4
 C     0.22570  -4.33920   1.40310    14    15    18     5
 C    -1.01490  -4.40580   0.86310    15    14     3    33
 C     2.73510  -3.27220   1.79200    16    17    24     6
 C     2.47540  -3.92920   0.66460    17    16    18    20
 C     1.24940  -4.45100   0.46330    18    17    31    14
 C     3.83570  -1.71970  -1.69950    19    94    21    37
 C     3.03720  -3.50850  -0.50320    20    17    21    36
 C     3.92480  -2.44780  -0.54190    21    19    20    27
 C     3.45080  -0.13490   2.74450    22    23    29    25
 C     3.17280  -1.41890   2.77010    23    22    24     7
 C     3.61740  -2.23890   1.78520    24    23    16    27
 C     4.18450   0.39430   1.71420    25    89    22    26
 C     4.58430  -0.35940   0.59870    26    25    93    27
 C     4.27990  -1.75380   0.64210    27    24    21    26
 C     1.33770   0.42620   3.82000    28    29    30     8
 C     2.58540   0.77340   3.27600    29   100    22    28
 C     0.33230   1.43720   3.78180    30    28    11    97
 C     1.02390  -4.39560  -0.90580    31    32    36    18
 C    -0.22480  -4.33290  -1.44030    32    31    33    40
 C    -1.25080  -4.45440  -0.50430    33    34    15    32
 C    -2.47490  -3.93010  -0.69420    34    35    33    56
 C    -2.73680  -3.25800  -1.81660    35    34    43    41
 C     2.08770  -3.76710  -1.48750    36    31    38    20
 C     2.84840  -1.95130  -2.67310    37    45    38    19
 C     1.91260  -2.94830  -2.59530    38    37    36    39
 C     0.62240  -2.73860  -3.16260    39    38    40    47
 C    -0.44100  -3.51960  -2.59250    40    41    32    39
 C    -1.72210  -3.02870  -2.73440    41    49    40    35
 C    -3.46210  -0.12590  -2.75010    42    44    50    52
 C    -3.62120  -2.22870  -1.80180    43    35    44    54
 C    -3.17910  -1.40750  -2.79050    44    42    43    49
 C     2.57380  -0.77020  -3.29440    45    37    86    46
 C     1.32320  -0.42450  -3.83380    46    45    47    75
 C     0.31970  -1.43590  -3.78550    47    48    46    39
 C    -1.02490  -0.96720  -3.84110    48    49    47    51
 C    -1.99710  -1.83530  -3.33790    49    41    44    48
 C    -2.59370   0.78110  -3.28100    50    42    71    51
 C    -1.34370   0.44250  -3.82790    51    50    74    48
 C    -4.19090   0.39490  -1.71360    52    64    42    53
 C    -4.58390  -0.36280  -0.60040    53    52    59    54
 C    -4.27730  -1.75870  -0.64850    54    43    55    53
 C    -3.92200  -2.45960   0.53030    55    57    56    54
 C    -3.03460  -3.51650   0.47790    56    34    55     3
 C    -3.84370  -1.72480   1.68280    57    60    55     1
 C    -4.26390   1.74410   0.67120    58    61    66    59
 C    -4.57680   0.34890   0.62620    59    60    53    58
 C    -4.18120  -0.40780   1.73900    60    57    63    59
 C    -3.60380   2.21700   1.82170    61    62    78    58
 C    -3.17610   1.39730   2.81380    62    63    61    10
 C    -3.45960   0.11950   2.77390    63    62     9    60
 C    -3.84120   1.71250  -1.67290    64    52    66    71
 C    -3.02770   3.49780  -0.46130    65    77    66    72
 C    -3.91400   2.43830  -0.51460    66    64    65    58
 C     1.70230   3.03970  -2.72250    67    73    68    81
 C     0.42130   3.53100  -2.57200    68    67    84    69
 C    -0.64030   2.74790  -3.14440    69    70    68    74
 C    -1.92800   2.95410  -2.56420    70    71    72    69
 C    -2.86400   1.95960  -2.65060    71    50    70    64
 C    -2.08650   3.76830  -1.44960    72    85    70    65
 C     1.97380   1.84320  -3.32960    73    67    88    75
 C    -0.34110   1.45120  -3.77870    74    75    51    69
 C     0.99870   0.98070  -3.84050    75    73    74    46
 C    -1.25280   4.44770   0.49390    76    77    85    80
 C    -2.47480   3.92030   0.70960    77    78    76    65
 C    -2.72590   3.25390   1.83390    78    77    61    95
 C     1.01400   4.38960   0.88580    79    80    98    83
 C    -0.22950   4.32310   1.43610    80    79    76    96
 C     2.71880   3.26500  -1.80620    81    82    87    67
 C     2.46320   3.92490  -0.67850    82    81    83    90
 C     1.24030   4.45540  -0.48450    83    82    79    84
 C     0.21210   4.34370  -1.41650    84    85    83    68
 C    -1.02700   4.40840  -0.87630    85    84    72    76
 C     3.44740   0.13130  -2.75840    86    88    45    94
 C     3.60290   2.23310  -1.80060    87    88    81    92
 C     3.16040   1.41410  -2.78740    88    86    87    73
 C     3.83690   1.71470   1.68280    89    25    91   100
 C     3.02740   3.50160   0.48690    90    82    91    98
 C     3.91850   2.44170   0.52450    91    89    90    92
 C     4.27180   1.74930  -0.65970    92    87    91    93
 C     4.58110   0.35580  -0.62540    93    94    26    92
 C     4.18370  -0.40070  -1.73560    94    19    86    93
 C    -1.71400   3.03080   2.74870    95    10    96    78
 C    -0.43280   3.51750   2.59830    96    95    80    97
 C     0.63300   2.74030   3.15840    97    99    96    30
 C     2.07940   3.76050   1.47300    98    79    99    90
 C     1.92050   2.94480   2.58590    99   100    98    97
 C     2.85980   1.95680   2.66240   100    29    99    89
