   100
C100-C2-132                                                                     
 C    -5.12700  -0.60210   0.02250     1     5    62    18
 C    -2.59050  -3.65710   0.74570     2     3    66     6
 C    -3.70380  -2.92780   0.47630     3     2     4    60
 C    -4.05350  -2.06280   1.50910     4     5     3     8
 C    -4.76870  -0.93790   1.29110     5     4     1    19
 C    -1.80000  -3.49380   1.89190     6    14     7     2
 C    -2.02860  -2.47450   2.79440     7     8     6    10
 C    -3.19430  -1.80570   2.58710     8     7    20     4
 C     0.36600  -2.43160   3.17660     9    11    12    10
 C    -0.92010  -1.83580   3.40800    10     7     9    23
 C     1.46160  -1.64110   3.38590    11     9    99    22
 C     0.59040  -3.52170   2.27590    12    14     9    13
 C     1.84420  -3.67830   1.58900    13    98    15    12
 C    -0.55780  -3.96320   1.64110    14     6    69    12
 C     1.74020  -4.12080   0.26040    15    68    82    13
 C    -4.73770   1.65270   0.59080    16    29    18    17
 C    -4.34200   1.28780   1.84790    17    19    26    16
 C    -5.08540   0.72310  -0.33290    18    16    42     1
 C    -4.34540  -0.00020   2.18480    19    17     5    20
 C    -3.33260  -0.49250   2.95320    20    19     8    24
 C     0.15560   0.39230   3.78450    21    22    23    39
 C     1.36590  -0.28590   3.68190    22    92    11    21
 C    -1.03600  -0.40070   3.71760    23    24    21    10
 C    -2.26200   0.27650   3.44630    24    20    23    25
 C    -2.26730   1.67490   3.10910    25    26    40    24
 C    -3.34480   2.10400   2.28780    26    17    30    25
 C    -2.40130   3.60420  -1.19350    27    28    32    48
 C    -3.54530   2.88910  -1.07810    28    27    29    41
 C    -4.00090   2.72430   0.23430    29    16    30    28
 C    -3.20790   3.07690   1.32710    30    31    26    29
 C    -2.06170   3.76390   1.22090    31    30    32    36
 C    -1.73990   4.11760  -0.09230    32    34    27    31
 C     0.47840   4.37070   0.42850    33    34    59    38
 C    -0.48760   4.35950  -0.46720    34    33    32    47
 C     1.48090   2.34620   3.02380    35    37    93    39
 C    -0.99880   3.52170   2.12720    36    38    31    40
 C     1.43130   3.40910   2.13620    37    38    35    88
 C     0.24890   3.91650   1.70540    38    37    33    36
 C     0.19550   1.79860   3.45400    39    21    40    35
 C    -1.05080   2.41660   3.05580    40    25    36    39
 C    -3.76540   1.87310  -2.02930    41    42    28    44
 C    -4.58630   0.81740  -1.60690    42    43    18    41
 C    -4.39200  -0.47160  -2.00810    43    46    42    62
 C    -2.69710   1.58510  -2.95980    44    45    49    41
 C    -2.57030   0.25630  -3.32680    45    46    54    44
 C    -3.39190  -0.73280  -2.85090    46    43    63    45
 C    -0.25800   3.89780  -1.73700    47    48    34    50
 C    -1.43640   3.38640  -2.16860    48    47    49    27
 C    -1.48570   2.31930  -3.04320    49    48    44    52
 C     0.99310   3.49910  -2.14950    50    47    58    51
 C     1.04220   2.38360  -3.06770    51    56    50    52
 C    -0.20610   1.76120  -3.46720    52    53    51    49
 C    -0.16500   0.35390  -3.79090    53    54    77    52
 C    -1.37500  -0.32490  -3.68210    54    45    70    53
 C     3.32960   2.07780  -2.29480    55    85    57    56
 C     2.25580   1.63610  -3.11430    56    55    51    78
 C     3.19370   3.05980  -1.34340    57    58    55    90
 C     2.04920   3.75190  -1.23740    58    57    59    50
 C     1.73810   4.12670   0.06980    59    33    88    58
 C    -3.96610  -2.56130  -0.87120    60    62     3    61
 C    -2.96560  -2.88550  -1.84810    61    63    65    60
 C    -4.69480  -1.37550  -1.02080    62     1    43    60
 C    -2.71210  -1.90650  -2.81340    63    46    70    61
 C    -0.59830  -3.53850  -2.25360    64    67    72    65
 C    -1.85410  -3.68750  -1.56280    65    61    66    64
 C    -1.75210  -4.11550  -0.23350    66    69     2    65
 C     0.55110  -3.97660  -1.62050    67    75    68    64
 C     0.55360  -4.40250  -0.32300    68    69    15    67
 C    -0.56740  -4.39820   0.34960    69    68    66    14
 C    -1.47620  -1.67840  -3.38280    70    72    63    54
 C     0.91060  -1.86870  -3.39820    71    74    72    77
 C    -0.37760  -2.45920  -3.16850    72    70    64    71
 C     3.18870  -1.83630  -2.56830    73    74    76    80
 C     2.01890  -2.50330  -2.77310    74    73    75    71
 C     1.79870  -3.51820  -1.86450    75    67    74    82
 C     3.32160  -0.52170  -2.94470    76    86    73    78
 C     1.02560  -0.43690  -3.71780    77    78    53    71
 C     2.24850   0.23710  -3.44650    78    76    77    56
 C     4.75970  -0.95660  -1.29220    79    80    83    86
 C     4.05640  -2.09070  -1.49550    80    79    81    73
 C     3.69950  -2.94770  -0.46000    81    82    80    97
 C     2.58930  -3.68240  -0.71870    82    81    15    75
 C     5.11020  -0.60590  -0.02480    83    79   100    87
 C     4.73040   1.65090  -0.59920    84    90    87    85
 C     4.33430   1.26770  -1.85470    85    86    55    84
 C     4.34050  -0.01800  -2.18560    86    85    79    76
 C     5.07380   0.72160   0.32430    87    84    95    83
 C     2.40390   3.63030   1.16950    88    89    59    37
 C     3.54170   2.90690   1.06840    89    88    90    96
 C     3.99570   2.72600  -0.24600    90    84    57    89
 C     3.37570  -0.70950   2.85360    91    94    99    92
 C     2.56460   0.28810   3.32850    92    91    22    93
 C     2.69490   1.61130   2.95040    93    92    35    96
 C     4.37360  -0.45480   2.00330    94    91    95   100
 C     4.57990   0.83620   1.59930    95    94    87    96
 C     3.76230   1.89440   2.02030    96    95    89    93
 C     3.95090  -2.56100   0.88340    97   100    81    98
 C     2.95240  -2.86990   1.86700    98    99    13    97
 C     2.70130  -1.88610   2.82340    99    91    11    98
 C     4.67430  -1.36970   1.02330   100    83    94    97
