   100
C100-C1-120                                                                     
 C     1.12820   4.20200  -0.19970     1     2    59     4
 C     2.24990   3.76190  -0.87740     2     3     1    41
 C     3.36240   3.32970  -0.24240     3     6     2    20
 C     1.09720   3.98980   1.23300     4     5     8     1
 C     2.22040   3.41400   1.78270     5     6     4    12
 C     3.36040   3.15970   1.09800     6     3    21     5
 C    -1.25980   4.01730   1.15480     7     8    16    62
 C    -0.12950   3.75450   1.88710     8     7     4    10
 C    -1.53160   2.17760   3.15590     9    13    14    10
 C    -0.24620   2.79320   2.95690    10     9     8    11
 C     0.94860   2.08690   3.35560    11    12    27    10
 C     2.14500   2.46940   2.79620    12    11    25     5
 C    -1.51590   0.91240   3.70160    13    99     9    26
 C    -2.69320   2.48990   2.38710    14    16     9    15
 C    -3.73860   1.50870   2.13600    15    17    98    14
 C    -2.50100   3.46370   1.41260    16    64     7    14
 C    -4.42540   1.60480   0.91180    17    65    79    15
 C     4.73500   1.45830  -0.46790    18    20    34    19
 C     4.74420   1.28450   0.88950    19    21    23    18
 C     4.00910   2.44070  -1.03220    20    18     3    40
 C     4.01050   2.11460   1.65700    21    19     6    25
 C     3.60500  -1.85690   2.03280    22    31    24    36
 C     4.78000  -0.03590   1.16620    23    19    35    24
 C     4.04090  -0.56640   2.23560    24    22    23    29
 C     3.24760   1.63470   2.68780    25    21    12    29
 C    -0.33950   0.22500   3.98980    26    92    27    13
 C     0.92060   0.74070   3.83040    27    26    11    28
 C     2.00500  -0.19560   3.61620    28    29    27    30
 C     3.21060   0.28130   3.02700    29    25    28    24
 C     1.64850  -1.59070   3.44260    30    31    93    28
 C     2.46490  -2.35370   2.61620    31    22    30    84
 C     3.66930  -1.28790  -2.40080    32    33    42    38
 C     4.05330   0.00840  -2.24620    33    32    34    39
 C     4.77420   0.25110  -1.06440    34    18    35    33
 C     4.90150  -0.70170  -0.05280    35    37    23    34
 C     3.81870  -2.55490   0.85740    36    37    54    22
 C     4.43140  -1.96100  -0.22620    37    35    38    36
 C     3.88450  -2.27750  -1.43600    38    56    37    32
 C     3.19680   1.01250  -2.80790    39    40    33    44
 C     3.24830   2.23550  -2.15440    40    41    20    39
 C     2.18030   3.09030  -2.10060    41    40    46     2
 C     2.54400  -1.60880  -3.10590    42    32    49    43
 C     1.63430  -0.68600  -3.66420    43    42    44    50
 C     1.95670   0.69120  -3.49140    44    43    45    39
 C     0.85060   1.62560  -3.50430    45    47    44    46
 C     0.99750   2.87110  -2.75940    46    41    58    45
 C    -0.49380   1.15070  -3.73560    47    48    51    45
 C    -1.54060   1.97530  -3.34560    48    74    57    47
 C     2.16090  -2.82800  -2.61890    49    52    56    42
 C     0.28110  -1.13640  -3.81460    50    53    51    43
 C    -0.82520  -0.24340  -3.85760    51    50    47    72
 C     0.91720  -3.21450  -2.73270    52    49    53    88
 C    -0.00120  -2.43290  -3.35850    53    70    52    50
 C     2.79550  -3.47520   0.73550    54    84    55    36
 C     2.31070  -3.88630  -0.48720    55    54    56    87
 C     2.90530  -3.21380  -1.55560    56    49    38    55
 C    -1.34780   3.15460  -2.63980    57    60    58    48
 C    -0.10400   3.58070  -2.23750    58    57    46    59
 C    -0.04180   4.22810  -0.93880    59    62     1    58
 C    -2.48800   3.41000  -1.94780    60    61    63    57
 C    -2.41940   3.95670  -0.71700    61    62    60    64
 C    -1.21780   4.29070  -0.21540    62    61    59     7
 C    -3.39760   2.44750  -2.20680    63    60    66    74
 C    -3.23150   3.50360   0.26410    64    65    61    16
 C    -4.16000   2.57660   0.00160    65    64    17    66
 C    -4.26980   2.05280  -1.25270    66    67    63    65
 C    -4.64580   0.76820  -1.15840    67    66    69    79
 C    -4.14990  -1.44620  -1.58080    68    75    69    77
 C    -4.17330  -0.17530  -2.07750    69    68    67    73
 C    -1.21000  -2.85370  -2.91690    70    53    71    81
 C    -2.30510  -2.04720  -2.98750    71    70    75    72
 C    -2.17140  -0.71690  -3.47820    72    71    73    51
 C    -3.17390   0.20170  -3.04300    73    74    72    69
 C    -2.82300   1.53520  -3.05280    74    63    73    48
 C    -3.26570  -2.37620  -2.04280    75    68    71    83
 C    -3.76320  -2.89330   0.02130    76    80    83    77
 C    -4.45430  -1.75270  -0.25450    77    76    68    78
 C    -4.70690  -0.77500   0.70810    78    79    77    97
 C    -4.83370   0.48200   0.20240    79    78    17    67
 C    -3.29450  -3.10840   1.25510    80    76   100    89
 C    -0.99920  -3.82190  -1.92410    81    88    82    70
 C    -1.86210  -4.01610  -0.89680    82    81    83    90
 C    -3.04340  -3.31570  -1.04250    83    76    82    75
 C     1.97430  -3.39840   1.83110    84    54    85    31
 C     0.65590  -3.81760   1.83180    85    84    96    86
 C     0.10900  -4.33370   0.58750    86    87    90    85
 C     0.96450  -4.29410  -0.56380    87    88    55    86
 C     0.33050  -4.00020  -1.77530    88    81    52    87
 C    -2.08620  -3.76190   1.43840    89    95    80    90
 C    -1.31170  -4.25520   0.39520    90    89    82    86
 C    -1.93860  -1.22750   3.64960    91    94    92    99
 C    -0.61220  -1.11630   3.91520    92    91    26    93
 C     0.33220  -2.07090   3.55710    93    92    30    96
 C    -2.40460  -2.29300   3.01730    94    91   100    95
 C    -1.52950  -3.24940   2.57720    95    89    94    96
 C    -0.16650  -3.19620   2.80120    96    95    85    93
 C    -4.15190  -0.94350   1.99600    97   100    78    98
 C    -3.63380   0.21160   2.68190    98    99    15    97
 C    -2.52230  -0.00390   3.49000    99    91    13    98
 C    -3.49140  -2.15940   2.21650   100    94    80    97
