   100
C100-C1-165                                                                     
 C     4.80780  -0.94550   0.20580     1     2     5    62
 C     4.31050  -2.03220  -0.50150     2    42    11     1
 C     4.32060   1.34330   1.68070     3     4     6    65
 C     4.16720   0.15740   2.25960     4     3     5    20
 C     4.44820  -0.97650   1.56740     5     4     9     1
 C     3.46720   2.34760   2.02340     6     3    67     7
 C     2.42880   2.14390   2.93550     7     8     6    19
 C     1.36530   2.95210   2.73320     8     7    22    66
 C     3.67360  -1.96020   2.12490     9    10     5    13
 C     3.25480  -3.03310   1.40750    10    12     9    11
 C     3.57290  -3.04890   0.07180    11    10     2    29
 C     2.06860  -3.57640   1.75170    12    10    27    15
 C     2.84160  -1.38420   3.09340    13    20    14     9
 C     1.58400  -1.85380   3.41460    14    13    15    25
 C     1.27540  -3.02690   2.75180    15    17    14    12
 C    -1.05860  -2.67610   2.99910    16    18    17    26
 C     0.00910  -3.40600   2.53390    17    15    16    39
 C    -2.21900  -2.96060   2.32120    18   100    16    40
 C     2.18140   0.87990   3.51790    19    20     7    24
 C     3.13600  -0.06540   3.15840    20    13     4    19
 C    -1.93990  -0.43690   3.52510    21    99    96    26
 C     0.10450   2.61090   3.14350    22    81     8    23
 C    -0.25180   1.36660   3.69840    23    22    24    96
 C     0.83560   0.44210   3.85710    24    23    25    19
 C     0.52140  -0.96740   3.81200    25    14    24    26
 C    -0.85110  -1.39230   3.62420    26    16    25    21
 C     1.23050  -4.17960   0.84370    27    39    12    28
 C     1.47150  -4.13800  -0.52840    28    29    27    36
 C     2.67710  -3.55320  -0.85690    29    30    28    11
 C     2.84530  -2.83420  -1.99840    30    29    31    42
 C     1.76790  -2.64120  -2.85150    31    32    30    37
 C     1.83490  -1.44610  -3.52680    32    31    55    43
 C    -0.65670  -2.53270  -3.13540    33    34    54    37
 C    -1.87660  -2.82430  -2.57990    34    33    38    56
 C    -0.94720  -4.18710  -0.82240    35    38    41    36
 C     0.34710  -4.03640  -1.40010    36    35    28    37
 C     0.49910  -3.22020  -2.59640    37    31    33    36
 C    -2.03360  -3.64230  -1.48730    38    92    34    35
 C    -0.01820  -4.16160   1.35990    39    41    27    17
 C    -2.26250  -3.74090   1.16540    40    91    41    18
 C    -1.12150  -4.25350   0.59070    41    39    40    35
 C     3.87130  -1.90620  -1.79800    42    44     2    30
 C     2.86630  -0.54390  -3.34030    43    45    32    44
 C     3.92490  -0.70060  -2.45110    44    42    43    61
 C     2.32400   0.67110  -3.60570    45    46    43    47
 C     2.81270   1.74930  -3.02380    46    45    60    53
 C     1.00300   0.57300  -3.91440    47    45    55    51
 C    -2.17550   2.06670  -2.94500    48    49    50    75
 C    -3.41490   1.54630  -2.52450    49    84    59    48
 C    -1.28120   1.17280  -3.60260    50    51    48    58
 C     0.07050   1.58170  -3.67050    51    47    50    52
 C     0.58050   2.74710  -2.99460    52    53    76    51
 C     1.94890   2.76770  -2.70430    53    69    46    52
 C    -0.56020  -1.23520  -3.75150    54    55    33    58
 C     0.70270  -0.76350  -3.91440    55    54    47    32
 C    -2.95600  -1.96450  -2.61950    56    34    57    87
 C    -2.84990  -0.68940  -3.15280    57    59    56    58
 C    -1.62100  -0.25810  -3.68750    58    57    54    50
 C    -3.73980   0.20890  -2.61070    59    57    49    89
 C     3.86250   1.66150  -2.15440    60    63    46    61
 C     4.45920   0.43320  -1.79010    61    60    44    62
 C     4.90860   0.31820  -0.43670    62    65     1    61
 C     3.67870   2.71820  -1.31820    63    64    60    69
 C     4.11420   2.60470  -0.06070    64    63    65    67
 C     4.70590   1.45350   0.36960    65    64     3    62
 C     1.27100   3.81780   1.64790    66    74    68     8
 C     3.35240   3.17630   0.91970    67    64    68     6
 C     2.20010   3.89010   0.65000    68    66    67    71
 C     2.50590   3.38780  -1.61960    69    53    71    63
 C     0.31500   4.12870  -0.95850    70    73    71    76
 C     1.71010   4.01320  -0.68380    71    69    68    70
 C    -1.86320   4.02960   0.05450    72    73    77    79
 C    -0.53800   4.26940   0.16240    73    72    74    70
 C    -0.03130   4.03480   1.43140    74    66    73    81
 C    -1.66450   3.20700  -2.20430    75    77    76    48
 C    -0.27550   3.51230  -2.15970    76    52    75    70
 C    -2.45020   3.60030  -1.11010    77    85    72    75
 C    -3.73350   3.00090   0.58540    78    79    82    85
 C    -2.63900   3.55410   1.11530    79    78    80    72
 C    -2.06030   3.07920   2.28860    80    81    79    95
 C    -0.76220   3.37920   2.41390    81    80    22    74
 C    -4.31590   1.96470   1.21460    82    78    86    97
 C    -4.84800   1.03960  -0.88030    83    89    84    86
 C    -4.15240   2.04490  -1.48580    84    85    83    49
 C    -3.63830   3.04020  -0.77290    85    84    77    78
 C    -4.92570   0.99340   0.48680    86    93    82    83
 C    -3.81240  -2.27060  -1.56960    87    92    88    56
 C    -4.62600  -1.34000  -0.95570    88    87    89    94
 C    -4.63030  -0.10630  -1.57470    89    83    88    59
 C    -3.98800  -2.34090   1.12120    90    91    94   100
 C    -3.31820  -3.31760   0.45010    91    92    40    90
 C    -3.20940  -3.27740  -0.88710    92    91    87    38
 C    -4.78710  -0.18060   1.15140    93    86    94    98
 C    -4.71260  -1.37250   0.46760    94    90    93    88
 C    -2.54860   1.89310   2.89900    95    97    80    96
 C    -1.62710   0.97690   3.54630    96    23    21    95
 C    -3.71670   1.39970   2.32140    97    98    82    95
 C    -4.02040   0.07100   2.30560    98    97    99    93
 C    -3.16760  -0.85070   2.88310    99   100    98    21
 C    -3.25990  -2.09220   2.28610   100    18    99    90
