   100
C100-C1-397                                                                     
 C    -3.74670  -2.29110   1.24460     1     2     5    57
 C    -4.38490  -1.15650   0.86140     2     1    55    15
 C    -1.66740  -4.07530   1.34790     3     4    11    58
 C    -2.38300  -3.98210   0.23200     4     3     5     7
 C    -3.41260  -3.11480   0.16820     5     4    13     1
 C     0.15770  -3.84550  -2.17960     6     8    98    19
 C    -1.78460  -4.12210  -0.98250     7     4    18     8
 C    -0.42970  -4.40340  -1.08190     8     6     7     9
 C     0.35930  -4.56250   0.07110     9     8    11    10
 C     1.74020  -4.17030   0.04970    10    12    97     9
 C    -0.34790  -4.39360   1.27830    11    74     3     9
 C     2.25320  -3.71830   1.26170    12    94    75    10
 C    -3.51040  -2.72140  -1.16050    13    14    18     5
 C    -4.04070  -1.52380  -1.53040    14    13    15    22
 C    -4.57920  -0.79480  -0.47120    15    16    14     2
 C    -4.67720   0.54680  -0.49130    16    15    17    40
 C    -4.20690   1.21500  -1.56180    17    16    26    23
 C    -2.48310  -3.30160  -1.85310    18    13    20     7
 C    -0.54470  -3.00480  -3.05150    19    33    20     6
 C    -1.87570  -2.65340  -2.91260    20    18    19    21
 C    -2.31890  -1.35450  -3.31770    21    20    22    35
 C    -3.45730  -0.82440  -2.63010    22    23    14    21
 C    -3.57800   0.55670  -2.58770    23    17    37    22
 C    -2.54780   3.90670  -0.02060    24    41    25    32
 C    -3.61650   3.05850  -0.15930    25    24    26    39
 C    -3.67240   2.45250  -1.40350    26    17    25    27
 C    -2.69120   2.59620  -2.37420    27    37    31    26
 C     0.86410   1.32230  -3.86050    28    47    29    38
 C    -0.36710   1.89530  -3.65000    29    28    36    30
 C    -0.36810   3.10420  -2.84870    30    31    29    49
 C    -1.59500   3.42450  -2.20950    31    27    32    30
 C    -1.58910   4.10820  -1.00420    32    51    31    24
 C     0.35190  -2.17270  -3.62060    33    19    34    91
 C    -0.02180  -0.91050  -4.05680    34    38    33    35
 C    -1.34260  -0.43480  -3.88990    35    34    36    21
 C    -1.49520   0.99820  -3.73050    36    37    29    35
 C    -2.63700   1.42140  -3.09890    37    36    23    27
 C     1.03100  -0.03430  -4.06690    38    34    28    93
 C    -4.02350   2.30940   0.96920    39    40    43    25
 C    -4.54020   1.05730   0.76730    40    16    39    55
 C    -1.90760   4.05540   1.17060    41    42    44    24
 C    -2.23180   3.27800   2.21670    42    41    43    69
 C    -3.26170   2.40870   2.12050    43    42    39    53
 C    -0.61970   4.39160   0.97460    44    41    45    51
 C     0.38160   4.01370   1.85080    45    46    44    68
 C     1.61480   3.96560   1.29400    46    70    45    52
 C     2.04280   1.81410  -3.35870    47    86    28    48
 C     2.11870   2.91930  -2.52390    48    47    89    49
 C     0.88000   3.58150  -2.24900    49    48    50    30
 C     0.80220   4.25000  -0.98580    50    51    52    49
 C    -0.41670   4.46190  -0.40400    51    32    50    44
 C     1.84370   4.11500  -0.08030    52    90    50    46
 C    -2.94170   1.32930   2.93220    53    54    59    43
 C    -3.43460   0.06600   2.71000    54    53    55    56
 C    -4.29310  -0.01470   1.61080    55     2    40    54
 C    -2.65870  -1.04940   3.11760    56    54    57    62
 C    -2.90560  -2.27430   2.39930    57    58     1    56
 C    -1.90310  -3.21620   2.40620    58    67    57     3
 C    -1.69680   1.55230   3.49180    59    69    53    61
 C     0.57090   0.87290   3.90140    60    64    61    72
 C    -0.84030   0.53640   3.89100    61    59    62    60
 C    -1.34100  -0.81730   3.74790    62    66    61    56
 C     2.77170   0.02550   3.35210    63    73    78    64
 C     1.48480  -0.22210   3.86110    64    63    65    60
 C     1.02580  -1.56160   3.76100    65    64    76    66
 C    -0.36500  -1.85350   3.70010    66    67    65    62
 C    -0.71210  -3.03670   3.03510    67    58    74    66
 C     0.06970   3.12090   2.92800    68    69    72    45
 C    -1.26090   2.78440   3.04680    69    42    68    59
 C     2.59680   3.18990   1.80800    70    46    82    71
 C     2.34930   2.30360   2.86240    71    73    70    72
 C     1.03300   2.18280   3.40320    72    68    71    60
 C     3.18710   1.22180   2.85520    73    63    71    85
 C     0.19980  -3.83060   2.37470    74    75    11    67
 C     1.46770  -3.52590   2.38120    75    74    76    12
 C     1.89670  -2.46870   3.09960    76    75    79    65
 C     4.30610  -0.36110   1.73370    77    78    85    81
 C     3.52460  -0.91620   2.68730    78    79    77    63
 C     3.07120  -2.13300   2.52470    79    78    76    94
 C     4.68230  -0.13090  -0.53660    80    99    81    83
 C     4.54200  -1.00990   0.50940    81    80    77    95
 C     3.51180   2.94460   0.79870    82    84    90    70
 C     4.58220   1.25630  -0.39340    83    84    88    80
 C     4.30460   1.83400   0.81800    84    85    82    83
 C     4.15340   0.99540   1.87400    85    84    77    73
 C     2.91130   0.75690  -3.28580    86    87    93    47
 C     3.88930   0.72490  -2.38370    87    86    88    99
 C     4.05390   1.78120  -1.55600    88    87    83    89
 C     3.20350   2.89210  -1.59400    89    90    88    48
 C     3.00200   3.47860  -0.37190    90    52    89    82
 C     1.61670  -2.49790  -3.13460    91    92    98    33
 C     2.64260  -1.60860  -3.11810    92    91    93   100
 C     2.30930  -0.38080  -3.66960    93    86    38    92
 C     3.28880  -2.83870   1.35320    94    12    79    95
 C     3.95700  -2.28530   0.26540    95    94    81    96
 C     3.45900  -2.66220  -1.03420    96   100    95    97
 C     2.35620  -3.60620  -1.11070    97    98    10    96
 C     1.49040  -3.48800  -2.20090    98    91     6    97
 C     4.23500  -0.46990  -1.78440    99    80    87   100
 C     3.60970  -1.68560  -2.08260   100    99    92    96
