   100
C100-C1-157                                                                     
 C    -1.59990  -3.97080  -1.42430     1    15     2    64
 C    -1.94040  -3.08200  -2.42830     2     1     3    10
 C    -3.12860  -2.40780  -2.19260     3     4     2    63
 C    -3.34940  -1.16260  -2.69410     4     3     5    17
 C    -2.37310  -0.52330  -3.43890     5     6     4    11
 C    -2.45180   0.84650  -3.37150     6     5    26    18
 C    -0.00540  -0.24020  -3.89720     7     8    25    11
 C     1.23880  -0.77040  -3.71090     8     7    89    12
 C     0.44860  -2.92010  -2.91970     9    12    13    10
 C    -0.89420  -2.47710  -3.18250    10     2     9    11
 C    -1.12150  -1.13220  -3.68990    11     5     7    10
 C     1.46770  -2.05980  -3.25080    12     9    99     8
 C     0.78790  -3.84490  -1.88330    13    15     9    14
 C     2.05980  -3.78320  -1.20810    14    16    98    13
 C    -0.30240  -4.30290  -1.16080    15     1    69    13
 C     2.03590  -4.03330   0.17250    16    68    79    14
 C    -4.26200  -0.50440  -1.86850    17    41    19     4
 C    -3.39460   1.50950  -2.59640    18    20     6    19
 C    -4.30320   0.86110  -1.75940    19    17    18    32
 C    -2.85810   2.71640  -2.30400    20    21    18    27
 C    -3.18300   3.31510  -1.15770    21    20    23    31
 C    -0.00450   4.41520  -0.14170    22    96    24    39
 C    -2.23050   4.04280  -0.52490    23    21    37    24
 C    -0.97030   4.22740  -1.07130    24    22    23    29
 C    -0.07850   1.18990  -3.75430    25    26     7    30
 C    -1.34540   1.66280  -3.50600    26    27    25     6
 C    -1.59250   2.82590  -2.83260    27    26    20    29
 C     0.78660   3.20620  -2.53980    28    95    29    30
 C    -0.57470   3.58590  -2.28080    29    27    24    28
 C     1.04950   2.00640  -3.32490    30    90    25    28
 C    -4.01750   2.69060  -0.26650    31    34    21    32
 C    -4.61650   1.44300  -0.50160    32    31    19    33
 C    -4.80090   0.58160   0.62410    33    40    36    32
 C    -3.54280   3.07680   0.95790    34    35    37    31
 C    -3.61030   2.22760   1.97730    35    34    36    58
 C    -4.24420   1.04280   1.83940    36    35    42    33
 C    -2.45140   3.87370   0.83260    37    34    38    23
 C    -1.40500   3.82820   1.73980    38    39    37    57
 C    -0.21750   4.19990   1.22640    39    60    38    22
 C    -4.78740  -0.82050   0.44450    40    41    44    33
 C    -4.54730  -1.33960  -0.82170    41    17    63    40
 C    -3.62530   0.21880   2.73130    42    43    36    45
 C    -3.63810  -1.07860   2.55190    43    42    50    44
 C    -4.24710  -1.62670   1.45700    44    61    43    40
 C    -2.52740   0.82420   3.30710    45    58    42    48
 C     1.05800  -1.33640   3.52390    46    73    70    47
 C     1.10390   0.12630   3.68790    47    55    52    46
 C    -1.36550   0.14030   3.70790    48    45    49    52
 C    -1.40610  -1.28170   3.54900    49    50    70    48
 C    -2.57860  -1.83000   2.97560    50    65    43    49
 C    -0.15630   2.27600   3.27100    51    59    57    52
 C    -0.13420   0.87790   3.72320    52    48    47    51
 C     3.29490   2.55010   1.94710    53    82    87    54
 C     2.28110   2.16520   2.86780    54    59    53    55
 C     2.31880   0.81110   3.31930    55    56    54    47
 C     3.41430   0.05940   2.85050    56    72    83    55
 C    -1.38880   2.85860   2.78400    57    58    38    51
 C    -2.53720   2.10880   2.85420    58    45    57    35
 C     1.05650   2.85300   2.80290    59    54    60    51
 C     0.94670   3.80950   1.77020    60    39    85    59
 C    -3.60560  -2.81520   1.25350    61    44    62    65
 C    -3.44270  -3.32610  -0.01310    62    64    63    61
 C    -3.88700  -2.53180  -1.03360    63    62    41     3
 C    -2.31880  -4.05190  -0.22830    64    62    67     1
 C    -2.60820  -2.96380   2.21510    65    66    50    61
 C    -1.48630  -3.69350   2.02110    66    65    67    71
 C    -1.40860  -4.31030   0.76650    67    69    64    66
 C     0.89210  -4.33210   0.82820    68    69    16    75
 C    -0.22900  -4.55180   0.18130    69    68    67    15
 C    -0.20930  -2.02890   3.40900    70    49    46    71
 C    -0.28920  -3.27530   2.66010    71    75    66    70
 C     3.34280  -1.28470   2.63170    72    56    73    77
 C     2.21160  -1.97940   2.95330    73    72    74    46
 C     2.07090  -3.12170   2.19160    74    75    73    79
 C     0.87460  -3.71150   2.05480    75    74    68    71
 C     4.82350  -0.47470   1.20120    76    77    83    80
 C     4.20420  -1.61700   1.56870    77    76    78    72
 C     3.88670  -2.61680   0.66440    78    79    77    97
 C     2.85280  -3.39220   1.05620    79    78    16    74
 C     5.08630  -0.24150  -0.11810    80    76   100    84
 C     4.56040   2.01780   0.18920    81    84    86    82
 C     4.30140   1.76650   1.52280    82    83    53    81
 C     4.39090   0.53270   2.00100    83    82    76    56
 C     4.90850   1.01800  -0.62660    84    81    92    80
 C     1.88340   3.95990   0.79440    85    87    60    96
 C     3.69180   2.96860  -0.23530    86    81    87    94
 C     3.03040   3.37160   0.88420    87    85    86    53
 C     3.25720  -0.84780  -2.87400    88    91    99    89
 C     2.34340   0.00050  -3.43440    89    88     8    90
 C     2.32170   1.38350  -3.19010    90    89    30    93
 C     4.23330  -0.40100  -2.09690    91    88    92   100
 C     4.31210   0.94550  -1.85380    92    84    91    93
 C     3.35440   1.87550  -2.33590    93    94    92    90
 C     3.05380   2.98160  -1.50750    94    93    95    86
 C     1.79310   3.61720  -1.60520    95    96    94    28
 C     1.29560   4.18760  -0.41780    96    22    85    95
 C     4.06950  -2.38420  -0.72420    97   100    78    98
 C     3.08260  -2.91250  -1.62320    98    99    14    97
 C     2.72130  -2.08900  -2.68830    99    88    12    98
 C     4.66950  -1.16210  -1.03770   100    80    91    97
