   100
C100-C2-421                                                                     
 C     4.81350  -0.46380  -0.53140     1     2     5    59
 C     4.48890  -1.76820  -0.25870     2     1     9    46
 C     4.10190   2.16210  -1.00090     3     4     6    58
 C     3.96180   1.25370  -1.96850     4     3     5    26
 C     4.32220  -0.03030  -1.76660     5     4     7     1
 C     3.23740   3.19970  -0.94860     6     3    65    32
 C     3.51490  -0.79300  -2.58700     7     8     5    12
 C     3.21860  -2.09000  -2.32120     8     7     9    15
 C     3.78290  -2.56840  -1.12990     9    10     2     8
 C     3.13790  -3.49270  -0.38050    10    11     9    45
 C     2.05220  -4.06240  -0.83790    11    10    36    16
 C     2.60940   0.04210  -3.22600    12    26     7    13
 C     1.34560  -0.35920  -3.65700    13    12    23    14
 C     1.00550  -1.75680  -3.45040    14    18    15    13
 C     1.97890  -2.59170  -2.77300    15    16     8    14
 C     1.48120  -3.65860  -2.03640    16    20    11    15
 C    -1.36100  -1.11870  -3.61330    17    21    18    22
 C    -0.39220  -2.13720  -3.39950    18    17    14    19
 C    -0.80980  -3.30590  -2.64520    19    20    40    18
 C     0.17700  -3.99150  -1.96780    20    16    19    37
 C    -2.64890  -1.35080  -3.06640    21    87    39    17
 C    -0.98540   0.25290  -3.80360    22    24    23    17
 C     0.36850   0.68800  -3.77870    23    22    13    30
 C    -1.95410   1.20180  -3.47140    24    31    86    22
 C     1.97460   2.37420  -2.83970    25    26    30    32
 C     2.90180   1.33900  -2.84450    26     4    12    25
 C    -1.30290   4.29850  -1.16350    27    92   100    28
 C    -0.18040   3.98480  -1.96970    28    34    27    29
 C    -0.37430   2.96140  -2.96000    29    31    30    28
 C     0.67970   2.07870  -3.35860    30    25    29    23
 C    -1.67210   2.47590  -3.06780    31    24    93    29
 C     2.17340   3.40570  -1.85620    32    34     6    25
 C     1.10100   4.48900  -0.00340    33    64    96    34
 C     1.08210   4.15160  -1.38390    34    28    32    33
 C    -1.20480  -4.54530  -0.16400    35    37    38    41
 C     1.09330  -4.49410   0.00970    36    37    11    43
 C    -0.02600  -4.58010  -0.73440    37    35    36    20
 C    -2.27190  -4.02700  -0.82470    38    35    57    40
 C    -2.99880  -2.41400  -2.28720    39    40    21    55
 C    -2.10360  -3.40430  -2.06460    40    39    38    19
 C    -1.29900  -4.31130   1.17880    41    50    35    42
 C    -0.17010  -3.99620   1.97450    42    43    41    51
 C     1.09490  -4.15920   1.39270    43    42    44    36
 C     2.19390  -3.41780   1.85390    44    43    45    47
 C     3.26050  -3.20870   0.95410    45    46    10    44
 C     4.12400  -2.17550   1.00750    46    49    45     2
 C     1.98820  -2.38270   2.83560    47    48    52    44
 C     2.92060  -1.34580   2.83570    48    49    70    47
 C     3.98900  -1.26260   1.96810    49    46    60    48
 C    -2.52650  -3.76070   1.32420    50    53    41    57
 C    -0.36030  -2.96930   2.96120    51    54    52    42
 C     0.69360  -2.08160   3.35730    52    47    51    68
 C    -2.71920  -2.88430   2.28990    53    50    83    54
 C    -1.65500  -2.47880   3.07620    54    66    53    51
 C    -3.97620  -1.99520  -1.36930    55    90    56    39
 C    -4.04130  -2.52830  -0.10030    56    55    57    82
 C    -3.16820  -3.57760   0.11850    57    38    50    56
 C     4.50050   1.76380   0.25670    58    59    63     3
 C     4.82210   0.46320   0.53090    59    58    60     1
 C     4.34110   0.02370   1.76370    60    49    61    59
 C     3.52360   0.78310   2.57940    61    62    60    70
 C     3.22870   2.08500   2.31230    62    61    63    73
 C     3.79500   2.56960   1.12100    63    65    58    62
 C     2.06030   4.06610   0.84920    64    65    33    74
 C     3.14170   3.49940   0.38550    65    64    63     6
 C    -1.94080  -1.20740   3.47630    66    54    75    67
 C    -0.97610  -0.25440   3.80430    67    66    68    78
 C     0.38040  -0.68910   3.77620    68    67    69    52
 C     1.36140   0.35370   3.65230    69    70    68    72
 C     2.62220  -0.05070   3.22200    70    48    61    69
 C    -0.38040   2.12880   3.40370    71    78    72    79
 C     1.01710   1.75090   3.44940    72    71    73    69
 C     1.98820   2.58780   2.77050    73    74    62    72
 C     1.48820   3.65950   2.04050    74    80    64    73
 C    -3.16600  -0.90300   2.93320    75    76    83    66
 C    -3.49350   0.34520   2.70920    76    75    77    84
 C    -2.64240   1.34480   3.07370    77    76    97    78
 C    -1.35480   1.11570   3.61490    78    77    71    67
 C    -0.80380   3.29870   2.64940    79    80    98    71
 C     0.18370   3.98840   1.97090    80    74    79    96
 C    -4.65950  -0.25340   0.66440    81    84    89    82
 C    -4.34280  -1.62260   0.94590    82    83    56    81
 C    -3.62700  -1.88530   2.12970    83    75    53    82
 C    -4.26400   0.69100   1.62680    84    94    76    81
 C    -3.63690   1.87570  -2.12390    85    86    93    88
 C    -3.17970   0.89000  -2.93360    86    87    85    24
 C    -3.50800  -0.35620  -2.70770    87    86    21    90
 C    -4.35130   1.61770  -0.93280    88    85    95    89
 C    -4.66620   0.24570  -0.66910    89    90    81    88
 C    -4.28390  -0.69620  -1.62880    90    55    87    89
 C    -3.16860   3.56800  -0.10790    91    92    99    95
 C    -2.53190   3.75040  -1.31650    92    93    27    91
 C    -2.73530   2.88010  -2.28150    93    92    85    31
 C    -3.96310   1.99510   1.38280    94    84    95    97
 C    -4.04310   2.51650   0.11460    95    94    91    88
 C    -0.02740   4.58320   0.73870    96   100    33    80
 C    -2.99120   2.41400   2.30390    97    98    77    94
 C    -2.10120   3.40650   2.07070    98    97    99    79
 C    -2.26920   4.03070   0.83320    99   100    91    98
 C    -1.20890   4.54830   0.17590   100    96    99    27
