   100
C100-C1-68                                                                      
 C     2.13950   3.04610   2.31040     1     7     2    52
 C     1.18420   3.77240   1.64930     2     1     3    10
 C    -0.16460   3.57350   2.01330     3     2     4    53
 C    -1.13550   3.97500   1.06760     4     5     6     3
 C    -2.40730   3.55390   1.17440     5     4    56    14
 C    -0.72750   4.23720  -0.22900     6    11     4    12
 C     3.38820   2.81370   1.80720     7    70     8     1
 C     3.71650   3.16500   0.53580     8     9    98     7
 C     2.76710   3.76200  -0.20170     9     8    10    24
 C     1.55420   4.15730   0.31800    10    11     9     2
 C     0.55850   4.25550  -0.58930    11     6    10    26
 C    -1.48560   3.83870  -1.31670    12    13    17     6
 C    -2.74120   3.36320  -1.20740    13    12    14    20
 C    -3.25390   3.36130   0.08150    14    15    13     5
 C    -4.23650   2.54320   0.46210    15    14    16    41
 C    -4.79770   1.68630  -0.42220    16    31    15    21
 C    -0.60750   3.44670  -2.28580    17    26    12    18
 C    -0.88330   2.39940  -3.14430    18    17    28    19
 C    -2.20320   1.81030  -3.04010    19    20    23    18
 C    -3.16080   2.35920  -2.11640    20    21    13    19
 C    -4.20910   1.55350  -1.67920    21    34    20    16
 C    -1.20060  -0.22550  -3.75990    22    23    29    45
 C    -2.35480   0.41620  -3.36800    23    22    33    19
 C     2.87840   3.23280  -1.49670    24    90    25     9
 C     1.79130   3.13830  -2.33060    25    26    24    27
 C     0.65830   3.76290  -1.88390    26    17    25    11
 C     1.64550   2.02900  -3.19520    27    25    28    92
 C     0.28360   1.69220  -3.57500    28    29    18    27
 C     0.03710   0.37620  -3.88590    29    95    28    22
 C    -4.68670  -1.67060  -0.70720    30    32    35    37
 C    -5.24890   0.48170  -0.00550    31    16    32    39
 C    -4.99840  -0.40100  -1.00970    32    30    31    34
 C    -3.37460  -0.41630  -2.82920    33    34    23    36
 C    -4.32800   0.22420  -2.03620    34    32    21    33
 C    -3.78780  -2.35980  -1.47050    35    30    49    36
 C    -3.10280  -1.81450  -2.56040    36    35    46    33
 C    -4.54480  -2.05090   0.60030    37    42    38    30
 C    -4.63620  -1.14260   1.59620    38    39    37    59
 C    -5.03090   0.11740   1.31220    39    38    40    31
 C    -4.33050   0.93730   2.14240    40    41    39    51
 C    -3.97280   2.15320   1.74840    41    40    56    15
 C    -3.59940  -2.99760   0.64670    42    37    43    49
 C    -2.72060  -3.08600   1.72150    43    44    42    58
 C    -1.59480  -3.75360   1.44670    44    43    61    50
 C    -0.97150  -1.57760  -3.54460    45    84    46    22
 C    -1.84800  -2.40310  -2.87090    46    45    36    47
 C    -1.23640  -3.46510  -2.09850    47    48    46    87
 C    -1.95780  -3.82890  -0.93340    48    49    50    47
 C    -3.17370  -3.28040  -0.65500    49    48    35    42
 C    -1.23380  -4.19630   0.16850    50    89    48    44
 C    -3.42910   0.20360   2.89450    51    59    40    54
 C     1.79570   1.97830   3.13370    52    71    57     1
 C    -0.53050   2.50190   2.95730    53    55    57     3
 C    -2.17810   0.68600   3.34510    54    51    64    55
 C    -1.86830   2.04730   2.98730    55    56    53    54
 C    -2.80570   2.69710   2.16500    56    41     5    55
 C     0.49030   1.61050   3.42420    57    52    53    65
 C    -2.65690  -2.04950   2.70160    58    59    43    63
 C    -3.65380  -1.11260   2.57610    59    51    58    38
 C     1.35990  -0.72570   3.57740    60    74    72    65
 C    -0.45810  -3.56360   2.14940    61    44    79    62
 C    -0.27780  -2.50850   3.07330    62    61    63    74
 C    -1.39530  -1.66610   3.29630    63    62    58    64
 C    -1.12980  -0.26390   3.61260    64    54    65    63
 C     0.23430   0.20520   3.70610    65    64    57    60
 C     3.27810  -2.29210   2.17680    66    67    73    75
 C     3.65940  -1.04890   2.56020    67    66    68    72
 C     4.59550  -0.45570   1.69510    68    69    78    67
 C     4.68150   0.88320   1.59090    69    68    70    97
 C     3.84040   1.64960   2.31550    70     7    69    71
 C     2.85790   1.10330   3.10350    71    70    52    72
 C     2.69320  -0.25490   3.26670    72    71    67    60
 C     2.06230  -2.78700   2.53740    73    66    83    74
 C     1.06320  -2.07750   3.23990    74    73    62    60
 C     3.66990  -2.88780   0.97190    75    82    77    66
 C     4.01490  -2.32870  -1.23650    76    77    80    99
 C     4.42920  -2.19550   0.07020    77    78    75    76
 C     4.91980  -0.98820   0.44590    78    77    96    68
 C     0.54180  -4.08820   1.40290    79    83    61    89
 C     2.95980  -3.14660  -1.60270    80    85    81    76
 C     2.25710  -3.92970  -0.71670    81    80    82    88
 C     2.67550  -3.74410   0.60460    82    83    75    81
 C     1.77780  -3.74570   1.60890    83    79    82    73
 C     0.37620  -1.78590  -3.58440    84    45    86    95
 C     2.32770  -2.58420  -2.66950    85    80    86    93
 C     0.99290  -2.82760  -2.93720    86    84    85    87
 C     0.20330  -3.67110  -2.12030    87    86    88    47
 C     0.89030  -4.20920  -0.97590    88    89    81    87
 C     0.09230  -4.38480   0.14150    89    50    79    88
 C     3.89420   2.30990  -1.49150    90    24    98    91
 C     3.84830   1.16020  -2.28400    91    90   100    92
 C     2.69800   1.01790  -3.15420    92    94    91    27
 C     2.97780  -1.38530  -2.95180    93    99    94    85
 C     2.31230  -0.30270  -3.49080    94    95    93    92
 C     1.00970  -0.57450  -3.82690    95    29    94    84
 C     5.04420   0.08060  -0.43530    96    97    78   100
 C     4.98740   1.22070   0.29170    97    98    96    69
 C     4.46340   2.33380  -0.23480    98    97     8    90
 C     4.02930  -1.23510  -2.09090    99    93   100    76
 C     4.50700   0.00660  -1.73910   100    99    96    91
