   100
C100-C1-206                                                                     
 C    -4.15810  -0.64190   1.63150     1     7     2    63
 C    -4.50690   0.03640   0.47620     2     1     3     4
 C    -4.49170  -0.77670  -0.64850     3    17     2    62
 C    -4.22600   1.43590   0.37340     4     2     5     9
 C    -3.97640   1.93300  -0.95820     5     6    16     4
 C    -3.19530   3.07420  -1.08230     6    12    18     5
 C    -3.55770  -0.00470   2.67130     7     1    69     8
 C    -3.25020   1.35270   2.67170     8     7    14     9
 C    -3.60640   2.12350   1.50830     9    11     8     4
 C    -1.74050   3.58900   2.09510    10    13    24    11
 C    -2.82760   3.29380   1.26650    11    12    10     9
 C    -2.65510   3.74970  -0.02480    12     6    11    26
 C    -1.37670   2.78700   3.13210    13    14    10   100
 C    -2.10850   1.69130   3.45630    14    13    15     8
 C    -1.35130   0.68630   4.04150    15    68    95    14
 C    -3.90070   1.03410  -2.06000    16    17    20     5
 C    -4.15520  -0.28360  -1.88320    17    16     3    30
 C    -2.33610   3.29290  -2.13670    18    19    21     6
 C    -2.17760   2.36120  -3.07140    19    18    20    47
 C    -2.94890   1.26720  -3.05860    20    19    28    16
 C    -1.28300   4.04180  -1.76760    21    18    26    22
 C    -0.01160   3.84620  -2.31710    22    23    21    46
 C     1.01830   4.15950  -1.47440    23    48    22    27
 C    -0.57980   4.20890   1.65870    24    25    89    10
 C    -0.43920   4.62310   0.36880    25    26    24    27
 C    -1.49590   4.39120  -0.45480    26    25    21    12
 C     0.81690   4.53290  -0.15480    27    25    92    23
 C    -2.21410   0.26910  -3.67730    28    29    33    20
 C    -2.44130  -1.04120  -3.46170    29    28    30    36
 C    -3.50580  -1.28550  -2.58650    30    31    17    29
 C    -3.54860  -2.38450  -1.81580    31    32    30    62
 C    -2.58890  -3.29400  -1.92350    32    31    53    37
 C    -0.94890   0.75580  -3.95100    33    47    28    34
 C     0.19950  -0.04240  -3.99420    34    33    44    35
 C     0.00440  -1.46440  -3.78160    35    39    34    36
 C    -1.34830  -1.93140  -3.53280    36    37    29    35
 C    -1.51010  -3.08410  -2.77320    37    41    32    36
 C     2.37290  -1.59930  -3.10130    38    42    39    43
 C     1.11520  -2.24870  -3.28560    39    38    35    40
 C     0.84960  -3.43770  -2.49170    40    41    57    39
 C    -0.46940  -3.77910  -2.26290    41    37    40    54
 C     3.26640  -2.19110  -2.16780    42    84    56    38
 C     2.53680  -0.17900  -3.31480    43    45    44    38
 C     1.43690   0.63870  -3.71720    44    43    34    50
 C     3.57340   0.44610  -2.59200    45    83    51    43
 C     0.18930   2.77780  -3.24970    46    47    50    22
 C    -0.94290   2.08440  -3.60360    47    19    33    46
 C     2.22020   3.55540  -1.57080    48    23    49    86
 C     2.47700   2.55540  -2.50230    49    51    48    50
 C     1.42630   2.06560  -3.33050    50    49    46    44
 C     3.50680   1.74690  -2.15520    51    49    45    88
 C    -0.08220  -4.56380  -0.09480    52    54    55    58
 C    -2.20240  -4.00990  -0.83180    53    54    32    60
 C    -0.92840  -4.36130  -1.09280    54    52    53    41
 C     1.22910  -4.35150  -0.27630    55    52    72    57
 C     2.92260  -3.23640  -1.34480    56    57    42    70
 C     1.74510  -3.85660  -1.47740    57    56    55    40
 C    -0.44970  -4.31290   1.20060    58    52    73    59
 C    -1.73050  -3.88490   1.53050    59    58    65    60
 C    -2.68920  -3.75350   0.46410    60    53    61    59
 C    -3.70200  -2.77080   0.53560    61    63    62    60
 C    -4.12320  -2.11610  -0.60970    62    31    61     3
 C    -3.75300  -1.99060   1.65630    63    61    66     1
 C    -0.56670  -2.63610   3.33380    64    67    75    65
 C    -1.78620  -3.04850   2.66150    65    66    59    64
 C    -2.85960  -2.14800   2.68630    66    69    63    65
 C    -0.59450  -1.40330   3.96170    67    68    81    64
 C    -1.70070  -0.60670   3.96070    68    69    15    67
 C    -2.80280  -0.95290   3.31880    69    68    66     7
 C     3.54540  -3.04820  -0.10610    70    76    71    56
 C     2.90400  -3.32520   1.10230    71    72    70    79
 C     1.75200  -4.02770   0.96480    72    71    73    55
 C     0.70920  -3.93870   1.85670    73    72    58    75
 C     1.90830  -2.20940   3.07830    74    79    80    75
 C     0.72720  -3.04510   2.91860    75    73    64    74
 C     4.36230  -1.99710  -0.23920    76    70    77    84
 C     4.56110  -1.16250   0.80350    77    76    85    78
 C     3.86830  -1.33080   1.97280    78    77    96    79
 C     3.00970  -2.40520   2.18540    79    78    71    74
 C     1.76000  -0.88930   3.66000    80    81    97    74
 C     0.49370  -0.57040   4.09380    81    80    67    95
 C     4.70710   0.63080  -0.68770    82    88    85    83
 C     4.39030  -0.20230  -1.71810    83    84    45    82
 C     4.22920  -1.49580  -1.50370    84    83    42    76
 C     4.74390   0.15800   0.57920    85    77    82    93
 C     2.80070   3.56090  -0.29500    86    87    92    48
 C     3.73070   2.65480   0.09510    87    86    88    94
 C     4.17650   1.83510  -0.92750    88    82    87    51
 C     0.49660   3.72290   2.38420    89   100    91    24
 C     2.63830   2.56160   2.32770    90    94    91    98
 C     1.78230   3.61730   1.87980    91    89    92    90
 C     1.89760   4.08780   0.57510    92    86    27    91
 C     4.18380   0.86500   1.60400    93    85    96    94
 C     3.67420   2.14400   1.43800    94    93    90    87
 C     0.03030   0.72750   4.15820    95    99    81    15
 C     3.64860  -0.05910   2.48640    96    97    93    78
 C     2.59460   0.23610   3.31370    97    96    80    98
 C     2.10110   1.60120   3.29600    98    99    97    90
 C     0.77860   1.80530   3.75830    99    95   100    98
 C     0.01050   2.85220   3.29610   100    89    99    13
