   100
C100-C1-108                                                                     
 C     3.88490  -1.50620  -1.90630     1     2     6    68
 C     4.23140  -0.18780  -1.92470     2     1     3     9
 C     4.86480   0.26710  -0.74820     3     4    53     2
 C     4.76270   1.55460  -0.35590     4     5     3    26
 C     4.10140   2.42760  -1.12670     5     4    27    10
 C     2.80670  -1.99360  -2.62010     6    73     1     7
 C     1.91680  -1.18720  -3.36080     7     6     8    20
 C     2.21960   0.21690  -3.39410     8     7    13     9
 C     3.41280   0.69030  -2.69710     9    10     2     8
 C     3.43360   2.01390  -2.25610    10    15     5     9
 C    -0.49640  -0.77800  -3.82390    11    22    20    12
 C    -0.22020   0.64270  -3.85050    12    17    13    11
 C     1.12110   1.13340  -3.62190    13    14    12     8
 C     1.25860   2.46200  -3.09450    14    15    31    13
 C     2.37480   2.85260  -2.41460    15    10    14    28
 C    -2.59360   1.05360  -3.30410    16    23    17    94
 C    -1.32940   1.52130  -3.56610    17    16    32    12
 C    -1.08220  -3.21710  -2.62110    18    21    74    19
 C     0.25130  -2.97740  -2.93860    19    18    72    20
 C     0.58160  -1.70000  -3.54560    20     7    11    19
 C    -2.09370  -2.37860  -2.91200    21    18    22    98
 C    -1.85240  -1.17690  -3.53720    22    23    21    11
 C    -2.86040  -0.27520  -3.29130    23    16    22   100
 C     3.80560   2.49980   1.56050    24    26    25    37
 C     3.22380   3.45490   0.79440    25    24    27    47
 C     4.62630   1.58890   1.00580    26    35    24     4
 C     3.38250   3.42870  -0.55300    27    28    25     5
 C     2.33710   3.73940  -1.33070    28    27    29    15
 C     1.15040   4.21170  -0.81440    29    30    28    46
 C     0.07960   3.99050  -1.60200    30    29    48    31
 C     0.13360   3.16420  -2.72320    31    32    14    30
 C    -1.10770   2.73680  -2.95800    32    31    17    96
 C     3.45670  -1.36980   2.51210    33    34    43    54
 C     3.80880  -0.05360   2.52780    34    33    35    38
 C     4.65670   0.33120   1.47520    35    26    53    34
 C     1.83920   2.96580   2.44420    36    39    37    47
 C     2.93510   2.14370   2.55810    37    24    36    38
 C     2.85840   0.85440   3.08170    38    37    34    41
 C     0.61300   2.64610   2.95460    39    36    51    40
 C     0.47400   1.34970   3.61010    40    45    41    39
 C     1.58390   0.42120   3.59960    41    38    40    42
 C     1.28240  -0.99670   3.58630    42    43    66    41
 C     2.26160  -1.82130   3.03220    43    59    33    42
 C    -1.89080   1.67150   3.38800    44    86    52    45
 C    -0.83010   0.84010   3.77590    45    44    40    67
 C     0.93070   4.22540   0.58930    46    47    50    29
 C     2.00900   3.77630   1.33140    47    25    46    36
 C    -1.19470   3.99530  -1.12960    48    30    96    49
 C    -1.51880   4.06430   0.22670    49    48    90    50
 C    -0.37550   4.06340   1.11540    50    46    51    49
 C    -0.49960   3.32230   2.35250    51    52    39    50
 C    -1.73210   2.83160   2.64500    52    51    91    44
 C     4.93050  -0.51230   0.40310    53    55    35     3
 C     3.85320  -2.24550   1.51270    54    56    55    33
 C     4.53490  -1.80080   0.39410    55    53    68    54
 C     2.93600  -3.24340   1.46160    56    54    57    59
 C     2.63730  -3.87420   0.27960    57    58    56    69
 C     1.38540  -4.36820   0.17810    58    57    71    62
 C     1.96450  -3.01570   2.42170    59    61    43    56
 C    -0.37640  -2.78660   2.92900    60    61    64    66
 C     0.68480  -3.49070   2.32540    61    59    62    60
 C     0.43630  -4.24560   1.19180    62    76    61    58
 C    -2.67500  -2.10580   2.69440    63    64    65    80
 C    -1.70560  -3.01680   2.39470    64    63    75    60
 C    -2.39400  -0.95880   3.41050    65    87    63    67
 C    -0.06300  -1.50770   3.59570    66    67    42    60
 C    -1.10010  -0.57410   3.78120    67    65    66    45
 C     4.08980  -2.32530  -0.80030    68    69    55     1
 C     3.18570  -3.33030  -0.86350    69    68    57    73
 C    -0.59890  -4.41640  -0.69690    70    74    71    76
 C     0.70560  -4.36140  -1.01190    71    70    58    72
 C     1.17820  -3.67070  -2.13530    72    73    71    19
 C     2.42940  -3.17260  -2.01110    73    72     6    69
 C    -1.49840  -3.92470  -1.51770    74    70    77    18
 C    -1.93990  -3.75860   1.19330    75    76    64    78
 C    -0.80490  -4.32370   0.65050    76    62    70    75
 C    -2.69130  -3.48150  -1.06430    77    74    98    78
 C    -3.01320  -3.39140   0.30050    78    81    77    75
 C    -4.25570  -0.62680   2.22140    79    82    87    80
 C    -3.80600  -1.87030   1.90440    80    79    81    63
 C    -3.97210  -2.42200   0.63110    81    80    78    84
 C    -4.87010   0.15480   1.30790    82    79    83    88
 C    -5.01770  -0.29580   0.03500    83    82    97    84
 C    -4.57660  -1.57120  -0.36940    84    83    99    81
 C    -3.74260   2.02280   2.19230    85    88    86    91
 C    -3.13890   1.22150   3.10690    86    87    44    85
 C    -3.39120  -0.08700   3.12040    87    86    65    79
 C    -4.60220   1.50180   1.29390    88    85    92    82
 C    -3.66790   2.94370  -0.40030    89    92    95    90
 C    -2.78070   3.53110   0.57570    90    91    49    89
 C    -2.85890   2.99820   1.85520    91    85    52    90
 C    -4.56480   1.93480   0.01050    92    88    97    89
 C    -4.34080   0.71480  -1.97500    93    97   100    94
 C    -3.51120   1.67530  -2.45760    94    93    95    16
 C    -3.18250   2.80030  -1.71800    95    96    94    89
 C    -1.97440   3.31720  -2.03280    96    95    48    32
 C    -4.88380   0.83260  -0.76130    97    93    92    83
 C    -3.14250  -2.58420  -1.99210    98    99    77    21
 C    -4.07690  -1.64540  -1.69380    99    98   100    84
 C    -3.94800  -0.49520  -2.44930   100    93    99    23
