   100
C100-C1-137                                                                     
 C     4.23950  -1.70760   1.38060     1     2    63     4
 C     4.89760  -0.60230   0.79790     2     3    44     1
 C     4.73120   0.66740   1.28360     3     6     2    28
 C     3.39160  -1.48090   2.52660     4     5     8     1
 C     3.30040  -0.16740   2.96110     5     6    12     4
 C     3.95780   0.86780   2.34990     6     3    20     5
 C     2.03870  -3.32300   1.94030     7    16     8    62
 C     2.24540  -2.26930   2.81450     8     7     4    10
 C    -0.20450  -2.40630   3.25850     9    13    14    10
 C     1.05970  -1.75610   3.47060    10     9    11     8
 C     1.03100  -0.35400   3.81790    11    12    23    10
 C     2.17210   0.36290   3.54720    12    11    21     5
 C    -1.35600  -1.67530   3.46230    13    99     9    22
 C    -0.37130  -3.49800   2.36200    14    16     9    15
 C    -1.62290  -3.72720   1.68170    15    98    17    14
 C     0.80060  -3.87500   1.73040    16    69     7    14
 C    -1.51350  -4.17310   0.35570    17    68    79    15
 C     2.05720   3.67360   1.47400    18    19    34    26
 C     3.21350   2.96120   1.49010    19    18    20    27
 C     3.23470   1.99850   2.48750    20     6    21    19
 C     2.13430   1.71220   3.27690    21    25    12    20
 C    -1.34300  -0.31450   3.74880    22    23    89    13
 C    -0.18890   0.40320   3.88450    23    22    11    24
 C    -0.27690   1.80960   3.55020    24    25    23    41
 C     0.95740   2.42120   3.23500    25    26    21    24
 C     0.98020   3.46330   2.34410    26    39    25    18
 C     3.90390   2.72950   0.27670    27    28    19    30
 C     4.71800   1.58510   0.24530    28    29     3    27
 C     4.94750   0.86010  -0.88050    29    32    28    44
 C     3.25410   3.11370  -0.95170    30    31    35    27
 C     3.43830   2.26120  -2.03660    31    32    30    59
 C     4.26950   1.19210  -2.00680    32    31    29    45
 C     0.22380   4.37080   0.55700    33    36    34    39
 C     1.53690   4.15960   0.30910    34    33    18    35
 C     2.04440   3.81340  -0.94960    35    30    34    38
 C    -0.64860   4.35880  -0.41820    36    33    96    37
 C    -0.23950   3.94690  -1.66490    37    61    38    36
 C     1.04720   3.60290  -1.96660    38    37    58    35
 C    -0.16630   3.91820   1.79080    39    26    33    40
 C    -1.45120   3.44950   2.07600    40    39    95    41
 C    -1.53120   2.35930   3.00950    41    90    40    24
 C     4.60510  -1.40460  -1.38820    42    44    64    43
 C     3.91640  -1.05450  -2.51570    43    45    51    42
 C     5.09240  -0.46420  -0.55420    44    42    29     2
 C     3.73600   0.23450  -2.80650    45    43    32    46
 C     2.55660   0.65430  -3.34440    46    45    59    49
 C    -0.76060  -1.90330  -3.33120    47    73    70    48
 C    -0.96910  -0.48980  -3.67470    48    56    53    47
 C     1.48210  -0.19410  -3.67170    49    46    53    50
 C     1.68650  -1.58560  -3.36650    50    51    70    49
 C     2.92120  -1.93810  -2.76990    51    43    65    50
 C     0.02830   1.81110  -3.43690    52    60    58    53
 C     0.17990   0.38710  -3.75890    53    49    48    52
 C    -3.52350   1.85810  -2.34970    54    82    87    55
 C    -2.41240   1.47500  -3.15670    55    60    54    56
 C    -2.26930   0.08040  -3.42870    56    57    55    48
 C    -3.29110  -0.73420  -2.90350    57    72    83    56
 C     1.17400   2.55480  -2.92490    58    59    38    52
 C     2.39500   1.95770  -2.92440    59    58    46    31
 C    -1.26600   2.29440  -3.11420    60    61    55    52
 C    -1.33460   3.38680  -2.23490    61    37    85    60
 C     2.80190  -3.50310   0.79180    62    63    67     7
 C     3.87090  -2.72390   0.47140    63    62    64     1
 C     4.03030  -2.52580  -0.90630    64    42    65    63
 C     3.05360  -2.92530  -1.81990    65    66    51    64
 C     1.99700  -3.68680  -1.50100    66    65    67    71
 C     1.95740  -4.05290  -0.15180    67    69    62    66
 C    -0.31760  -4.40850  -0.22350    68    69    17    75
 C     0.80390  -4.34560   0.45250    69    68    67    16
 C     0.57110  -2.42230  -3.11770    70    50    47    71
 C     0.77330  -3.52580  -2.19220    71    75    66    70
 C    -3.06610  -2.01670  -2.50060    72    57    73    77
 C    -1.84870  -2.59890  -2.69750    73    72    74    47
 C    -1.59680  -3.59340  -1.77530    74    75    73    79
 C    -0.34270  -3.99500  -1.53480    75    74    68    71
 C    -4.69890  -1.21650  -1.24190    76    77    83    80
 C    -3.92470  -2.30630  -1.42430    77    76    78    72
 C    -3.52070  -3.11760  -0.37540    78    79    77    97
 C    -2.37860  -3.79240  -0.62840    79    78    17    74
 C    -5.04810  -0.85330   0.02540    80   100    76    84
 C    -4.82560   1.40690  -0.59590    81    84    86    82
 C    -4.45110   1.00750  -1.86440    82    83    54    81
 C    -4.35770  -0.27940  -2.16260    83    82    76    57
 C    -5.07010   0.48300   0.34580    84    81    92    80
 C    -2.38680   3.58840  -1.37520    85    87    96    61
 C    -4.14020   2.53170  -0.27610    86    81    87    94
 C    -3.45370   2.85520  -1.42060    87    85    54    86
 C    -3.29440  -0.81170   2.89120    88    91    99    89
 C    -2.53850   0.23160   3.35030    89    88    22    90
 C    -2.70260   1.55550   2.92540    90    89    41    93
 C    -4.28750  -0.61140   2.03250    91    88    92   100
 C    -4.54040   0.66480   1.59650    92    84    91    93
 C    -3.75590   1.78340   1.97630    93    92    94    90
 C    -3.58630   2.80370   1.00530    94    95    93    86
 C    -2.43850   3.61200   1.05600    95    94    96    40
 C    -1.93380   4.06250  -0.18530    96    36    85    95
 C    -3.78550  -2.72550   0.96350    97   100    78    98
 C    -2.77400  -2.97210   1.94970    98    99    15    97
 C    -2.57490  -1.96890   2.89320    99    88    13    98
 C    -4.56110  -1.56530   1.08100   100    80    91    97
