   100
C100-T-321                                                                      
 C    -3.66630   2.35230  -0.10040     1     2    62     4
 C    -3.80520   1.95590   1.21930     2     3     1    58
 C    -4.29690   0.73900   1.56800     3     6    15     2
 C    -4.01760   1.37880  -1.12640     4     5     9     1
 C    -4.41870   0.12390  -0.68150     5     6     4    22
 C    -4.59220  -0.17100   0.62450     6     3    16     5
 C    -1.64930   2.49770  -3.56230     7    10     8    69
 C    -2.62350   2.50920  -2.62790     8     7     9    63
 C    -3.42610   1.39840  -2.38840     9     8     4    12
 C    -1.36330   1.36700  -4.23490    10     7    11    97
 C    -2.03930   0.22250  -3.97800    11    10    12    23
 C    -3.09880   0.16360  -3.08830    12    11    21     9
 C    -3.46150  -0.94450   2.94400    13    15    31    14
 C    -3.76620  -1.85940   1.99210    14    16    18    13
 C    -3.73360   0.35590   2.73380    15    13    30     3
 C    -4.32180  -1.47680   0.83150    16    14     6    17
 C    -3.95000  -2.04000  -0.34190    17    16    22    20
 C    -2.83180  -2.83780   2.00680    18    14    19    32
 C    -2.47610  -3.53450   0.85760    19    18    40    20
 C    -3.05410  -3.09610  -0.40590    20    17    26    19
 C    -3.32350  -1.09840  -2.48560    21    22    12    25
 C    -4.05060  -1.06610  -1.32110    22    21    17     5
 C    -1.15170  -0.82520  -4.17480    23    24    11   100
 C    -1.29030  -2.04460  -3.55230    24    23    92    25
 C    -2.43420  -2.22630  -2.68140    25    26    24    21
 C    -2.33420  -3.20870  -1.62130    26    27    20    25
 C    -1.17130  -3.93770  -1.54490    27    26    93    39
 C    -1.75720   1.01710   3.90390    28    30    44    29
 C    -1.43820  -0.39220   4.10360    29    31    35    28
 C    -2.88960   1.31720   3.15920    30    15    28    58
 C    -2.32250  -1.31620   3.57170    31    13    32    29
 C    -1.93030  -2.52700   3.03150    32    33    31    18
 C    -0.62450  -2.95530   3.03950    33    32    41    34
 C     0.35800  -2.09880   3.66900    34    33    38    35
 C    -0.09050  -0.82600   4.20130    35    36    29    34
 C     0.84580   0.17610   4.30480    36    35    54    43
 C     2.02370  -3.15380   2.27950    37    38    42    82
 C     1.73530  -2.20610   3.23650    38    37    53    34
 C    -0.66120  -4.42160  -0.33370    39    88    40    27
 C    -1.21490  -4.12900   0.90910    40    39    19    41
 C    -0.29040  -3.86560   2.00500    41    42    33    40
 C     1.05950  -3.97540   1.71550    42    89    41    37
 C     0.51550   1.52960   4.18530    43    46    44    36
 C    -0.75450   1.98580   3.85560    44    43    28    45
 C    -0.83790   3.11540   2.93860    45    48    57    44
 C     1.63800   2.16420   3.77620    46    47    43    49
 C     1.56410   3.22060   2.95110    47    46    50    48
 C     0.35860   3.66030   2.50710    48    47    45    59
 C     2.63460   1.26130   3.61750    49    52    46    54
 C     2.47820   3.39710   1.97280    50    51    72    47
 C     3.46180   2.49370   1.81460    51    50    73    52
 C     3.54190   1.42280   2.64070    52    49    55    51
 C     2.64350  -1.11920   3.29620    53    54    38    56
 C     2.16310   0.02420   3.90940    54    49    53    36
 C     4.01710   0.36490   1.94940    55    52    56    74
 C     3.65900  -0.94160   2.26420    56    55    83    53
 C    -1.92060   3.24500   2.03030    57    58    45    61
 C    -2.95180   2.35970   2.23280    58    57     2    30
 C     0.55650   4.16940   1.23390    59    60    48    72
 C    -0.44920   4.24450   0.29700    60    59    65    61
 C    -1.76570   3.78830   0.69690    61    62    57    60
 C    -2.66510   3.32910  -0.34080    62    63     1    61
 C    -2.22170   3.40930  -1.63960    63    62    66     8
 C     1.37600   3.93970  -1.39380    64    67    71    65
 C    -0.01280   4.23480  -1.05360    65    66    60    64
 C    -0.96670   3.87590  -1.99210    66    69    63    65
 C     1.60440   3.28650  -2.59950    67    68    64    78
 C     0.62140   3.03740  -3.49260    68    69    67    96
 C    -0.64940   3.33460  -3.19420    69    68     7    66
 C     3.36970   2.71340  -0.57150    70    73    77    71
 C     2.32510   3.71540  -0.39650    71    72    64    70
 C     1.89590   3.96590   0.89790    72    50    71    59
 C     3.87330   2.12640   0.57760    73    51    74    70
 C     4.27210   0.80380   0.64790    74    75    73    55
 C     4.26870  -0.03410  -0.44130    75    74    86    76
 C     3.84970   0.52300  -1.71160    76    80    75    77
 C     3.41790   1.90660  -1.73810    77    78    70    76
 C     2.55860   2.27500  -2.74640    78    77    95    67
 C     3.26700  -1.71270  -2.38630    79    80    85    94
 C     3.30450  -0.37410  -2.70910    80    79    98    76
 C     2.71400  -3.76910   0.27630    81    84    82    89
 C     3.04980  -3.00680   1.34300    82    81    83    37
 C     3.81080  -1.85120   1.21940    83    82    56    86
 C     3.03620  -3.38050  -0.96950    84    81    90    85
 C     3.69960  -2.21350  -1.16860    85    84    86    79
 C     4.13830  -1.41260  -0.13050    86    85    75    83
 C     1.00090  -4.18360  -1.76000    87    90    88    93
 C     0.67090  -4.57870  -0.51050    88    89    87    39
 C     1.52090  -4.36800   0.50410    89    88    81    42
 C     2.18360  -3.58690  -1.99750    90    87    94    84
 C     1.21290  -2.15690  -3.65760    91    94    99    92
 C    -0.08150  -2.77220  -3.38660    92    93    24    91
 C    -0.10890  -3.75680  -2.41360    93    87    27    92
 C     2.28610  -2.57750  -2.88610    94    90    91    79
 C     2.07860   1.39540  -3.70160    95    96    78    98
 C     0.90740   1.89830  -4.16570    96    97    68    95
 C    -0.07840   1.06650  -4.54190    97    96   100    10
 C     2.36110   0.03670  -3.68580    98    95    80    99
 C     1.29880  -0.85150  -4.13830    99   100    91    98
 C     0.09170  -0.27120  -4.49780   100    97    99    23
