   100
C100-C1-222                                                                     
 C     0.15550   3.67760   2.18490     1     2    65    15
 C    -0.68950   4.03820   1.15780     2     1     8     3
 C    -2.06420   3.57470   1.21950     3     4     2    64
 C    -2.74950   3.44680  -0.02200     4     5     6     3
 C    -3.81320   2.59180  -0.15690     5     4    61    19
 C    -2.05480   3.65480  -1.19040     6     9     4    17
 C     1.42710   4.13350  -0.19960     7    10    13     8
 C    -0.00420   4.29940  -0.06600     8     9     2     7
 C    -0.76560   4.06980  -1.20360     9     6    12     8
 C     1.89610   3.74040  -1.45220    10    11   100     7
 C     1.05060   3.46000  -2.49060    11    12    31    10
 C    -0.23850   3.62080  -2.37420    12    11     9    22
 C     2.23720   3.71720   0.87400    13    15     7    14
 C     3.43360   2.91930   0.67010    14    16    99    13
 C     1.53140   3.53790   2.05660    15    70    13     1
 C     3.75740   2.01730   1.69820    16    69    95    14
 C    -2.27390   2.90300  -2.35480    17    18    22     6
 C    -3.23270   1.95940  -2.44780    18    17    19    26
 C    -4.08670   1.90420  -1.35240    19    20    18     5
 C    -4.75670   0.78770  -1.02190    20    19    21    34
 C    -4.55360  -0.33240  -1.74800    21    20    35    27
 C    -1.10910   2.81110  -3.03730    22    17    12    24
 C     0.69560   1.49840  -3.87920    23    31    24    29
 C    -0.70350   1.67720  -3.77000    24    22    23    25
 C    -1.61400   0.58700  -3.79690    25    24    26    30
 C    -2.92400   0.77570  -3.19660    26    27    18    25
 C    -3.63720  -0.34040  -2.77730    27    41    21    26
 C     2.57400   0.04230  -3.54350    28    87    94    29
 C     1.24430   0.19370  -3.98310    29    28    23    39
 C    -1.04090  -0.75520  -3.87670    30    40    39    25
 C     1.52910   2.46460  -3.26910    31    92    11    23
 C    -4.83040  -0.47260   0.94150    32    47    34    33
 C    -4.65520  -1.61300   0.21150    33    35    32    55
 C    -4.88630   0.73360   0.33200    34    32    20    61
 C    -4.52220  -1.53990  -1.13210    35    36    33    21
 C    -3.63350  -2.33080  -1.75940    36    35    37    41
 C    -2.89310  -3.27640  -1.07270    37    38    36    54
 C    -1.71960  -3.58500  -1.68380    38    56    37    44
 C     0.40320  -0.95520  -3.93730    39    29    30    42
 C    -1.84130  -1.80930  -3.34210    40    41    44    30
 C    -3.09310  -1.59340  -2.82500    41    27    40    36
 C     1.00570  -2.17900  -3.40810    42    43    88    39
 C     0.13230  -3.08100  -2.82290    43    44    83    42
 C    -1.21100  -2.90420  -2.79540    44    43    40    38
 C    -2.54340   0.18270   3.53610    45    62    46    51
 C    -3.60140   0.50770   2.73940    46    45    47    60
 C    -4.17210  -0.59320   2.11240    47    32    46    48
 C    -3.58590  -1.86200   2.12980    48    55    50    47
 C    -1.51720  -3.11500   2.39450    49    50    53    58
 C    -2.44590  -2.14360   2.84700    50    48    51    49
 C    -1.98380  -1.09650   3.61440    51    72    50    45
 C     0.83470  -3.58800   2.12110    52    53    59    73
 C    -0.15210  -2.99390   2.87630    53    52    71    49
 C    -2.95570  -3.35930   0.35730    54    55    37    58
 C    -3.86010  -2.47430   0.93140    55    48    33    54
 C    -0.67490  -4.11220  -1.01430    56    38    83    57
 C    -0.67740  -4.21690   0.37530    57    59    56    58
 C    -1.79020  -3.74320   1.10210    58    57    54    49
 C     0.58070  -4.18140   0.90280    59    57    85    52
 C    -3.60440   1.79730   2.10400    60    61    46    64
 C    -4.27160   1.82540   0.88520    61    34     5    60
 C    -1.56710   1.07020   3.83540    62    45    66    63
 C    -1.52800   2.33570   3.26080    63    65    62    64
 C    -2.50440   2.70420   2.30840    64    63    60     3
 C    -0.25490   2.83570   3.19750    65    63     1    68
 C    -0.43410   0.35000   4.19380    66    67    72    62
 C     0.82080   0.85860   4.12740    67    66    68    76
 C     0.85920   2.16300   3.65790    68    70    65    67
 C     2.99570   1.87270   2.81920    69    70    16    77
 C     1.92710   2.63700   2.99450    70    69    68    15
 C     0.30500  -1.89710   3.68690    71    72    53    75
 C    -0.68140  -0.98330   4.00690    72    51    66    71
 C     2.15440  -3.18670   2.12700    73    78    52    74
 C     2.63280  -2.09800   2.85190    74    73    75    81
 C     1.67290  -1.41210   3.65660    75    74    76    71
 C     1.90750  -0.01280   3.89230    76    77    67    75
 C     3.01370   0.57450   3.26650    77    82    69    76
 C     2.69420  -3.56620   0.92550    78    79    85    73
 C     3.70790  -2.90910   0.36940    79    78    80    90
 C     4.25940  -1.85460   1.03730    80    79    96    81
 C     3.75640  -1.43110   2.26460    81    82    80    74
 C     3.89260  -0.08340   2.46700    82    77    81    95
 C     0.47260  -3.89500  -1.76020    83    84    43    56
 C     1.71950  -3.91050  -1.23040    84    83    85    91
 C     1.73050  -4.10850   0.14600    85    78    59    84
 C     4.12320  -0.76820  -2.17330    86    89    93    87
 C     3.10310  -1.11630  -3.04890    87    28    88    86
 C     2.34860  -2.26800  -2.92380    88    87    42    91
 C     4.41780  -1.54640  -1.13750    89    86    90    96
 C     3.74770  -2.71480  -0.98570    90    89    79    91
 C     2.71710  -3.13650  -1.83750    91    84    90    88
 C     2.76710   2.24080  -2.78500    92    94    31   100
 C     4.20220   0.58690  -2.05020    93    94    86    98
 C     3.31020   1.05670  -2.95510    94    92    93    28
 C     4.37900   0.80610   1.49320    95    97    16    82
 C     4.74070  -0.98050   0.07110    96    89    80    97
 C     4.77760   0.39990   0.24290    97    95    96    98
 C     4.50230   1.26170  -0.84330    98    97    93    99
 C     3.83870   2.51600  -0.62820    99   100    14    98
 C     3.02200   2.98010  -1.64770   100    10    92    99
