   100
C100-C2-429                                                                     
 C    -4.87060   0.55180  -0.44290     1     2     5    61
 C    -4.53110   1.79540   0.04250     2     9     1    40
 C    -4.12980  -1.94580  -1.36870     3     4     6    60
 C    -4.01630  -0.88280  -2.16210     4     3     5    23
 C    -4.39670   0.34720  -1.74200     5     4     7     1
 C    -3.23780  -2.96030  -1.48800     6     3    67    21
 C    -3.62010   1.25520  -2.43350     7     8     5    12
 C    -3.31390   2.49390  -1.94860     8     7     9    15
 C    -3.83690   2.74160  -0.67400     9    10     2     8
 C    -3.14210   3.49550   0.21530    10    11     9    39
 C    -2.04080   4.10710  -0.14380    11    10    29    16
 C    -2.72470   0.54970  -3.22210    12    13    23     7
 C    -1.49430   1.04210  -3.60790    13    12    26    14
 C    -1.14470   2.38500  -3.18010    14    18    15    13
 C    -2.08250   3.07170  -2.33130    15    16     8    14
 C    -1.51640   3.95270  -1.41560    16    32    11    15
 C     1.15800   1.79480  -3.51210    17    18    57    27
 C     0.24730   2.73820  -3.09580    18    17    31    14
 C    -1.05380  -4.29330  -0.75020    19    95    66    20
 C    -1.01530  -3.70730  -2.04390    20    21    98    19
 C    -2.15260  -2.95970  -2.39790    21    20     6    22
 C    -1.98670  -1.79730  -3.20780    22    23    25    21
 C    -2.96270  -0.80100  -3.04860    23     4    12    22
 C     0.45170  -2.22840  -3.39190    24    98    99    25
 C    -0.70420  -1.38400  -3.67220    25    22    24    26
 C    -0.50620   0.04640  -3.89660    26    27    13    25
 C     0.78990   0.50270  -3.89190    27   100    26    17
 C     1.24340   4.25970   0.50710    28    30    33    35
 C    -1.04390   4.30010   0.75090    29    30    11    37
 C     0.05980   4.47430  -0.00610    30    28    29    32
 C     0.77640   3.67210  -2.15250    31    32    18    34
 C    -0.18860   4.21200  -1.32910    32    16    30    31
 C     2.28710   3.88220  -0.28010    33    28    54    34
 C     2.11450   3.55650  -1.63820    34    58    33    31
 C     1.37020   3.76330   1.77830    35    50    28    36
 C     0.25360   3.38390   2.55260    36    35    37    47
 C    -1.02140   3.71340   2.04000    37    38    36    29
 C    -2.16100   2.96860   2.38630    38    37    39    41
 C    -3.24200   2.95950   1.47420    39    40    10    38
 C    -4.13640   1.95260   1.35800    40    43    39     2
 C    -1.99540   1.80430   3.19860    41    42    48    38
 C    -2.97040   0.80340   3.03760    42    43    69    41
 C    -4.02730   0.89080   2.15390    43    40    62    42
 C    -0.52240  -0.03720   3.89390    44    45    68    48
 C     0.77320  -0.49840   3.88720    45    49    44    70
 C     1.76300   1.67010   3.43170    46    49    52    47
 C     0.44190   2.23260   3.38830    47    36    46    48
 C    -0.71270   1.39430   3.66800    48    41    47    44
 C     1.85900   0.31450   3.71280    49    45    81    46
 C     2.59730   3.19060   1.80300    50    35    52    54
 C     3.88530   1.33890   2.23910    51    80    55    52
 C     2.85870   2.17080   2.66360    52    50    51    46
 C     4.12560   2.39330   0.07190    53    54    55    56
 C     3.20150   3.28660   0.53900    54    33    53    50
 C     4.51510   1.43700   1.00750    55    87    51    53
 C     4.06030   2.04560  -1.30090    56    59    53    58
 C     2.47520   1.75460  -3.09690    57    90    17    58
 C     3.01690   2.59610  -2.12200    58    57    34    56
 C     4.48210   0.73740  -1.59340    59    94    86    56
 C    -4.53290  -1.78920  -0.05610    60    65    61     3
 C    -4.87190  -0.54940   0.43860    61    60    62     1
 C    -4.40740  -0.34100   1.73670    62    43    63    61
 C    -3.63150  -1.25050   2.42710    63    64    62    69
 C    -3.32500  -2.49000   1.93930    64    63    65    73
 C    -3.84530  -2.73800   0.66110    65    67    60    64
 C    -2.05840  -4.10760   0.13910    66    67    19    74
 C    -3.15270  -3.49500  -0.22730    67    66    65     6
 C    -1.50640  -1.03520   3.60500    68    69    44    72
 C    -2.73600  -0.54530   3.21700    69    68    42    63
 C     1.14580  -1.78850   3.51340    70    71    84    45
 C     0.23390  -2.72840   3.09300    71    70    76    72
 C    -1.16000  -2.37780   3.17400    72    73    71    68
 C    -2.09250  -3.06710   2.32370    73    74    64    72
 C    -1.52610  -3.94750   1.40670    74    77    66    73
 C     2.10030  -3.54720   1.63640    75    83    78    76
 C     0.75870  -3.66060   2.14530    76    77    71    75
 C    -0.19760  -4.20250   1.31180    77    74    95    76
 C     2.27430  -3.87870   0.28020    78    96    88    75
 C     4.47560  -0.72870   1.59710    79    80    87    82
 C     3.89250   0.01990   2.57300    80    81    51    79
 C     2.89020  -0.47980   3.28940    81    80    84    49
 C     4.04900  -2.03510   1.30300    82    79    89    83
 C     3.00530  -2.58790   2.12230    83    84    75    82
 C     2.46300  -1.75560   3.10180    84    81    70    83
 C     4.50440  -1.43280  -1.00770    85    86    93    89
 C     4.89410  -0.16750  -0.64050    86    87    85    59
 C     4.89620   0.17180   0.64810    87    86    55    79
 C     3.18680  -3.27640  -0.53950    88    89    78    91
 C     4.10940  -2.38470  -0.07060    89    88    85    82
 C     2.90240   0.47890  -3.29160    90    94    57   100
 C     2.59330  -3.19260  -1.80980    91    97    92    88
 C     2.86820  -2.17020  -2.66550    92    91    93    99
 C     3.89010  -1.33010  -2.24520    93    94    85    92
 C     3.90530  -0.01620  -2.56880    94    90    93    59
 C     0.05880  -4.47800  -0.00740    95    96    19    77
 C     1.24360  -4.26670  -0.51440    96    95    78    97
 C     1.37130  -3.77510  -1.78610    97    91    96    98
 C     0.26200  -3.38270  -2.55740    98    97    20    24
 C     1.77420  -1.66690  -3.43710    99   100    92    24
 C     1.87210  -0.31260  -3.72370   100    27    90    99
