   100
C100-C2-8                                                                       
 C     3.45230   2.83750  -0.94370     1     3    19     2
 C     3.20750   2.15890  -2.20050     2     4     8     1
 C     4.38040   2.26570  -0.07150     3    73    33     1
 C     3.96340   1.02790  -2.43370     4     2    71     5
 C     3.39310  -0.06420  -3.06900     5    76     4     6
 C     2.05980  -0.08740  -3.51880     6     5     7    15
 C     1.30450   1.10800  -3.49070     7     6    11     8
 C     1.92510   2.22820  -2.81400     8     9     2     7
 C     1.05140   3.14210  -2.29480     9     8    13    18
 C    -0.76350  -0.24180  -3.68820    10    14    17    11
 C    -0.12590   1.04540  -3.62820    11    10     7    12
 C    -0.96740   2.12880  -3.17470    12    13    29    11
 C    -0.31090   3.11140  -2.47880    13    12     9    24
 C    -2.12630  -0.29320  -3.49560    14    10    99    28
 C     1.36460  -1.34100  -3.42770    15    16    17     6
 C     2.06360  -2.35730  -2.79130    16    75    94    15
 C    -0.03410  -1.43950  -3.44110    17    15    10    96
 C     1.30890   3.80670  -1.11870    18    21     9    19
 C     2.42930   3.58040  -0.34900    19    18     1    20
 C     2.20730   3.54410   1.07210    20    23    32    19
 C     0.09330   4.13120  -0.62610    21    22    24    18
 C    -0.10250   4.11590   0.68290    22    21    23    25
 C     0.91160   3.75690   1.49590    23    22    39    20
 C    -0.92380   3.77850  -1.44140    24    21    13    27
 C    -1.31740   3.77850   1.17100    25    22    38    26
 C    -2.44000   3.56800   0.39660    26    25    49    27
 C    -2.21700   3.54960  -1.02400    27    24    30    26
 C    -2.92090   0.80090  -3.20100    28    91    29    14
 C    -2.34950   2.01610  -2.90160    29    28    12    30
 C    -3.00680   2.74610  -1.83790    30    27    31    29
 C    -4.14850   2.20880  -1.25390    31    92    30    48
 C     2.99940   2.73710   1.88110    32    33    20    35
 C     4.14350   2.20300   1.30280    33    34    32     3
 C     4.75440   1.05920   1.73480    34    37    54    33
 C     2.34610   1.99060   2.93670    35    36    40    32
 C     2.92150   0.77350   3.21820    36    37    35    45
 C     4.08960   0.33800   2.67010    37    34    55    36
 C    -1.05610   3.11500   2.34810    38    41    39    25
 C     0.30450   3.08940   2.53540    39    40    38    23
 C     0.96320   2.10080   3.21580    40    39    35    43
 C    -1.93200   2.19490   2.85640    41    38    50    42
 C    -1.30270   1.07150   3.52160    42    47    43    41
 C     0.12980   1.00670   3.66090    43    44    42    40
 C     0.77540  -0.27660   3.71120    44    45    69    43
 C     2.13560  -0.32420   3.51320    45    44    36    59
 C    -3.38270  -0.09120   3.08360    46    83    51    47
 C    -2.05080  -0.13130   3.53820    47    46    42    70
 C    -4.40130   2.25780   0.11810    48    87    31    49
 C    -3.46420   2.82350   0.98700    49    26    48    50
 C    -3.21330   2.13430   2.23810    50    51    41    49
 C    -3.96690   0.99960   2.46250    51    50    88    46
 C     5.42380  -0.94030   0.63850    52    74    54    53
 C     4.68690  -1.64220   1.57840    53    55    58    52
 C     5.40710   0.43650   0.71350    54    34    73    52
 C     4.03600  -1.01320   2.57370    55    53    37    59
 C     3.51570  -2.98160  -1.26450    56    57    67    75
 C     4.42130  -2.62440  -0.33560    57    56    58    74
 C     4.02250  -2.68140   0.97520    58    57    53    62
 C     2.81800  -1.42500   3.02800    59    55    45    61
 C     0.74190  -2.54850   2.72830    60    61    64    69
 C     2.12580  -2.50760   2.49830    61    59    60    62
 C     2.73920  -3.13440   1.37280    62    58    66    61
 C    -1.39240  -3.23290   1.92290    63    64    78    68
 C    -0.04540  -3.32160   1.81750    64    63    65    60
 C     0.47690  -3.75220   0.55750    65    66    64    80
 C     1.86050  -3.64080   0.37620    66    67    65    62
 C     2.30300  -3.49630  -0.93300    67    56    94    66
 C    -2.04300  -2.38450   2.79480    68    84    63    70
 C     0.04860  -1.47190   3.45550    69    70    44    60
 C    -1.34560  -1.37800   3.44410    70    68    69    47
 C     4.96610   0.56230  -1.60360    71    73    72     4
 C     5.03990  -0.79820  -1.70420    72    76    71    74
 C     5.16250   1.18370  -0.41130    73    71    54     3
 C     5.25790  -1.55180  -0.56730    74    52    57    72
 C     3.35890  -2.26750  -2.41040    75    76    16    56
 C     4.07890  -1.15870  -2.59850    76    75    72     5
 C    -3.48930  -3.00040   1.25490    77    81    84    78
 C    -2.28160  -3.51480   0.91070    78    77    63    79
 C    -1.83770  -3.64590  -0.40010    79    78    80    97
 C    -0.45360  -3.74880  -0.58010    80    79    95    65
 C    -4.39010  -2.63510   0.32690    81    77   100    85
 C    -5.01040  -0.81730   1.70140    82    83    88    85
 C    -4.05420  -1.18790   2.59610    83    84    82    46
 C    -3.33370  -2.29540   2.40390    84    83    68    77
 C    -5.22020  -1.55570   0.55090    85    89    81    82
 C    -5.40760   0.43500  -0.69620    86    92    87    89
 C    -5.18000   1.17290   0.43870    87    88    86    48
 C    -4.96900   0.54790   1.62310    88    87    82    51
 C    -5.40390  -0.94240  -0.65070    89    85    86    93
 C    -4.03200  -0.99850  -2.56970    90    93    91    99
 C    -4.08950   0.35820  -2.66020    91    92    90    28
 C    -4.74950   1.06630  -1.71520    92    91    86    31
 C    -4.66880  -1.65060  -1.57860    93    90   100    89
 C     1.41150  -3.22070  -1.94230    94    95    67    16
 C     0.06740  -3.31060  -1.83710    95    94    96    80
 C    -0.72610  -2.52990  -2.73250    96    98    95    17
 C    -2.71860  -3.13150  -1.39340    97   100    79    98
 C    -2.10870  -2.48630  -2.50900    98    99    96    97
 C    -2.80610  -1.40000  -3.02330    99    90    14    98
 C    -4.00110  -2.69030  -0.98690   100    93    81    97
