   100
C100-C1-87                                                                      
 C    -4.45310  -1.66850   0.93800     1     2    67     4
 C    -4.91770  -0.98320  -0.20700     2     3    53     1
 C    -4.59260  -1.38100  -1.46750     3     6     2    18
 C    -3.62970  -2.83750   0.71940     4     5     9     1
 C    -3.32800  -3.18260  -0.60040     5     6    28     4
 C    -3.80750  -2.46170  -1.65040     6     3    19     5
 C    -1.32960  -2.17160   3.39880     7    10     8    13
 C    -2.50620  -2.36370   2.75100     8     7    66     9
 C    -2.62960  -3.20870   1.63980     9     8     4    12
 C    -0.26650  -2.85540   3.08530    10     7    97    11
 C    -0.30330  -3.71400   2.03040    11    29    10    12
 C    -1.42110  -3.87520   1.23120    12    11    27     9
 C    -1.18330  -0.89990   3.86960    13    74     7    14
 C     0.06470  -0.26010   3.99670    14    13    15    96
 C     0.06290   1.15070   3.82390    15    14    92    72
 C    -3.43590  -0.28520  -3.17500    16    17    18    36
 C    -2.68090  -1.38350  -3.37340    17    19    16    26
 C    -4.41670  -0.27040  -2.24980    18    16    35     3
 C    -2.86290  -2.47610  -2.62190    19    17    20     6
 C    -1.80160  -3.22030  -2.25030    20    19    28    24
 C     1.85470  -3.03140  -2.22580    21    22    23    50
 C     2.85850  -3.25520  -1.27340    22    85    32    21
 C     0.55180  -3.52250  -1.94730    23    24    21    31
 C    -0.50310  -2.98700  -2.70940    24    20    23    25
 C    -0.30720  -1.79850  -3.51420    25    26    51    24
 C    -1.42980  -1.01990  -3.74780    26    17    25    37
 C    -1.10740  -4.09300  -0.14310    27    28    12    31
 C    -2.10250  -3.72170  -0.99530    28    27    20     5
 C     0.97540  -3.82890   1.62770    29    11    30    88
 C     1.29490  -4.07480   0.31230    30    32    29    31
 C     0.24640  -4.10240  -0.63140    31    30    27    23
 C     2.55420  -3.69520  -0.01090    32    30    22    90
 C    -3.89610   2.01960  -1.72340    33    55    35    34
 C    -2.83430   1.99690  -2.71210    34    36    40    33
 C    -4.64160   0.84120  -1.52000    35    18    53    33
 C    -2.64890   0.80650  -3.38810    36    16    34    37
 C    -1.40140   0.36500  -3.79850    37    38    36    26
 C    -0.23390   1.08370  -3.69320    38    37    48    39
 C    -0.34940   2.39850  -3.10590    39    43    38    40
 C    -1.66320   2.79280  -2.59560    40    41    34    39
 C    -1.66800   3.65060  -1.50930    41    45    40    54
 C     2.10210   2.32220  -2.75730    42    46    43    47
 C     0.85420   2.98260  -2.57220    43    42    44    39
 C     0.74700   3.88100  -1.45350    44    45    65    43
 C    -0.51620   4.12740  -0.96820    45    41    58    44
 C     3.16490   2.64150  -1.87760    46    82    64    42
 C     2.16540   1.00430  -3.32950    47    49    48    42
 C     0.98490   0.32620  -3.71200    48    47    38    51
 C     3.28380   0.22200  -3.01380    49    81    52    47
 C     2.04700  -1.86280  -3.06600    50    52    51    21
 C     0.93990  -1.15280  -3.59260    51    25    50    48
 C     3.23100  -1.15370  -2.88310    52    86    49    50
 C    -5.03170   0.39410  -0.26750    53    57     2    35
 C    -2.63840   3.61980  -0.51500    54    55    59    41
 C    -3.72510   2.80920  -0.57340    55    54    56    33
 C    -4.13870   2.33550   0.67730    56    57    61    55
 C    -4.74470   1.12650   0.80930    57    53    56    68
 C    -0.76870   4.32150   0.36650    58    62    59    45
 C    -2.01530   3.95450   0.67230    59    58    54    60
 C    -2.30960   3.34930   1.89400    60    61    59    71
 C    -3.40730   2.55110   1.83790    61    60    69    56
 C     0.20510   4.17820   1.24930    62    58    63    70
 C     1.46310   4.04920   0.83920    63    62    78    65
 C     2.96610   3.38240  -0.73840    64    65    46    76
 C     1.79360   3.97690  -0.51070    65    64    63    44
 C    -3.20690  -1.20850   2.92800    66     8    67    74
 C    -4.19630  -0.83750   2.06040    67    66    68     1
 C    -4.33990   0.54140   1.97380    68    57    67    69
 C    -3.49570   1.43760   2.62440    69    61    73    68
 C     0.00590   3.49700   2.42030    70    62    91    71
 C    -1.23190   3.01520   2.77100    71    70    72    60
 C    -1.23130   1.80830   3.53180    72    71    73    15
 C    -2.43780   1.04960   3.44050    73    74    69    72
 C    -2.37200  -0.30050   3.60320    74    13    73    66
 C     4.58730   1.96240  -0.29900    75    76    79    82
 C     3.77540   2.86130   0.26850    76    75    64    77
 C     3.29500   2.70090   1.57290    77    78    76    93
 C     2.13820   3.34590   1.81650    78    77    91    63
 C     5.00940   0.88680   0.39120    79    75    83    98
 C     4.88220  -0.41180  -1.57600    80    86    81    83
 C     4.32710   0.65000  -2.21710    81    82    80    49
 C     4.22400   1.83470  -1.62040    82    81    46    75
 C     5.22630  -0.29190  -0.24120    83    87    79    80
 C     4.34790  -2.41450   0.14000    84    90    87    85
 C     4.00630  -2.53200  -1.18230    85    86    22    84
 C     4.23230  -1.51390  -2.01150    86    85    80    52
 C     4.89430  -1.27680   0.62650    87    84    83    99
 C     1.78820  -3.05000   2.45800    88    89    97    29
 C     3.00710  -2.60540   2.10650    89    88    90   100
 C     3.44030  -3.07490   0.87260    90    84    89    32
 C     1.21030   2.92380   2.74170    91    70    78    92
 C     1.32610   1.71450   3.42070    92    91    15    94
 C     3.55480   1.50080   2.28230    93    98    77    94
 C     2.53830   0.95220   3.17170    94    95    92    93
 C     2.48050  -0.48690   3.32280    95    96    94   100
 C     1.23260  -1.04550   3.72570    96    97    95    14
 C     0.97770  -2.35700   3.29360    97    88    10    96
 C     4.45630   0.64060   1.65010    98    99    79    93
 C     4.39310  -0.72060   1.79750    99    98   100    87
 C     3.41460  -1.31930   2.57730   100    99    89    95
