   100
C100-C1-65                                                                      
 C    -3.69930  -0.81650  -2.60370     1     2    62    12
 C    -2.77680  -1.77200  -2.88490     2     1    58     6
 C     0.85950  -3.30330  -2.57740     3     4    74     7
 C    -0.33600  -2.87160  -3.02950     4     3     5    57
 C    -0.45490  -1.67460  -3.68070     5     4     6    17
 C    -1.73650  -1.19780  -3.62610     6    16     5     2
 C     2.04380  -2.58850  -2.72960     7     3    10     8
 C     1.96330  -1.28580  -3.36560     8    22    17     7
 C     3.98090  -1.94530  -1.50050     9    10    21   100
 C     3.02860  -2.86920  -1.74850    10     9    11     7
 C     2.69570  -3.66380  -0.65560    11    73    98    10
 C    -3.22400   0.35680  -3.16450    12    13    16     1
 C    -3.54370   1.56320  -2.62280    13    12    14    15
 C    -4.38440   1.58960  -1.55200    14    13    26    59
 C    -2.53530   2.48270  -2.66890    15    13    24    20
 C    -1.99730   0.11560  -3.74970    16     6    12    19
 C     0.68070  -0.80630  -3.82040    17     5     8    18
 C     0.40650   0.62000  -3.86070    18    19    23    17
 C    -0.96300   1.02970  -3.83060    19    20    16    18
 C    -1.31110   2.23910  -3.26420    20    42    19    15
 C     4.02080  -0.74880  -2.17440    21    95     9    22
 C     2.98350  -0.33990  -3.05220    22    21     8    40
 C     1.41110   1.55150  -3.40120    23    40    18    41
 C    -2.33030   3.37990  -1.64630    24    29    25    15
 C    -3.10370   3.38720  -0.51050    25    24    26    32
 C    -4.19030   2.50340  -0.52190    26    27    14    25
 C    -4.64440   1.91690   0.60960    27    26    28    46
 C    -3.99110   2.14810   1.77300    28    47    27    33
 C    -1.01060   3.71710  -1.66230    29    24    30    42
 C    -0.32430   4.11850  -0.53760    30    29    38    31
 C    -1.03300   3.99110   0.71590    31    32    35    30
 C    -2.40810   3.64420   0.70240    32    33    31    25
 C    -2.89100   2.96380   1.81640    33    28    52    32
 C     1.11520   3.67210   1.71250    34    35    39    82
 C    -0.23160   3.61720   1.85430    35    34    51    31
 C     3.02510   3.01220  -1.61930    36    91    37    43
 C     1.72990   3.45380  -1.78910    37    36    41    38
 C     1.06650   4.06050  -0.64780    38    39    30    37
 C     1.77080   3.99730   0.53910    39    92    38    34
 C     2.70700   1.07100  -3.06930    40    43    23    22
 C     0.96400   2.79150  -2.77140    41    42    37    23
 C    -0.37740   3.04330  -2.70290    42    20    41    29
 C     3.51430   1.88340  -2.24890    43    96    36    40
 C    -4.87470  -0.34480   1.19910    44    46    45    60
 C    -4.27800  -0.07770   2.39460    45    49    47    44
 C    -5.07410   0.64710   0.30300    46    44    59    27
 C    -3.80870   1.15490   2.67520    47    45    28    53
 C    -1.50160  -2.02090   3.35560    48    50    89    65
 C    -3.55020  -1.14350   2.77490    49    45    50    64
 C    -2.36730  -0.99810   3.49630    50    48    49    55
 C    -0.71070   2.73270   2.86690    51    52    35    56
 C    -2.04980   2.47420   2.80760    52    51    53    33
 C    -2.60490   1.32240   3.30450    53    47    52    55
 C    -0.39070   0.48230   3.88050    54    55    56    88
 C    -1.81060   0.28070   3.76580    55    53    50    54
 C     0.16740   1.75830   3.50230    56    83    54    51
 C    -1.35220  -3.42120  -2.22460    57    69    58     4
 C    -2.58930  -2.86200  -2.06440    58    57     2    63
 C    -4.88990   0.40350  -1.01820    59    46    14    62
 C    -4.48020  -1.59800   0.78760    60    64    44    61
 C    -4.26740  -1.93170  -0.55870    61    60    62    63
 C    -4.50370  -0.86300  -1.48310    62     1    59    61
 C    -3.28340  -2.95400  -0.81940    63    58    61    67
 C    -3.71700  -2.13400   1.79860    64    66    60    49
 C    -1.72630  -3.07180   2.47050    65    70    66    48
 C    -2.78790  -3.10570   1.57510    66    64    65    67
 C    -2.55630  -3.60800   0.26510    67    66    68    63
 C    -1.27860  -4.21100   0.03170    68    69    71    67
 C    -0.74200  -4.13720  -1.25100    69    57    74    68
 C    -0.52320  -3.61660   2.21350    70    65    71    75
 C    -0.27010  -4.26350   1.04140    71    70    72    68
 C     1.07020  -4.28450   0.71800    72    73    71    78
 C     1.49380  -4.26120  -0.56520    73    74    11    72
 C     0.59430  -4.13740  -1.52200    74    73    69     3
 C     0.45680  -2.91250   2.91530    75    89    77    70
 C     2.55910  -1.74210   2.86800    76    77    80    87
 C     1.77500  -2.88060   2.55830    77    75    78    76
 C     2.06680  -3.65830   1.45250    78    98    77    72
 C     4.28350  -0.27200   2.01830    79    80    85    97
 C     3.73830  -1.54170   2.06370    80    79    99    76
 C     3.17810   2.91670   1.80770    81    84    82    92
 C     1.98750   2.89740   2.46040    82    81    34    83
 C     1.55670   1.83870   3.27290    83    82    56    86
 C     4.04540   1.90330   1.91790    84    81    93    85
 C     3.65200   0.79560   2.63200    85    84    79    86
 C     2.43070   0.69610   3.31680    86    85    87    83
 C     1.88100  -0.59790   3.50470    87    86    88    76
 C     0.48430  -0.66880   3.82740    88    89    87    54
 C    -0.15600  -1.87970   3.56110    89    75    48    88
 C     4.65090   2.18100  -0.33130    90    91    96    93
 C     3.72880   3.16370  -0.44570    91    92    90    36
 C     3.04250   3.58140   0.62780    92    91    39    81
 C     4.84910   1.55330   0.87650    93    97    84    90
 C     5.04460  -0.50760  -0.20070    94   100    97    95
 C     4.75870   0.10130  -1.40440    95    96    21    94
 C     4.53880   1.41650  -1.45760    96    95    90    43
 C     5.01340   0.21740   0.94010    97    93    94    79
 C     3.10540  -3.34670   0.62790    98    99    78    11
 C     3.97660  -2.34820   0.90020    99    98   100    80
 C     4.53950  -1.75040  -0.22730   100    94    99     9
