   100
C100-C1-426                                                                     
 C    -2.05800   3.97580   0.14020     1     6     2    54
 C    -2.65850   3.54630  -1.01800     2     1     3    10
 C    -3.75910   2.72700  -0.79200     3     4    53     2
 C    -4.09120   1.72750  -1.66260     4     5     3    28
 C    -3.31190   1.54050  -2.73100     5     4    14    11
 C    -0.75230   4.32690   0.16360     6     1     8    74
 C     1.39790   4.18280  -0.64570     7     8    21    75
 C     0.06830   4.25930  -0.95570     8     7     6     9
 C    -0.43500   3.67090  -2.15390     9    10     8    23
 C    -1.82340   3.35110  -2.16000    10    11     9     2
 C    -2.21140   2.30920  -2.98440    11     5    25    10
 C    -2.93060  -1.94610  -2.72530    12    13    34    20
 C    -3.68480  -0.82340  -2.57200    13    12    14    27
 C    -3.11210   0.28260  -3.19210    14     5    15    13
 C    -1.86930   0.27330  -3.80480    15    19    25    14
 C     2.16610   0.69790  -3.52820    16    17    90    26
 C     0.85460   0.58220  -3.90940    17    16    24    18
 C     0.31740  -0.76360  -3.95480    18    19    17    41
 C    -1.09480  -0.85770  -3.90990    19    20    15    18
 C    -1.69760  -1.97740  -3.39000    20    39    19    12
 C     2.30590   3.58580  -1.47900    21     7    22    98
 C     1.87200   2.91740  -2.61430    22    26    21    23
 C     0.50650   2.90770  -2.97230    23    22    24     9
 C     0.03060   1.74860  -3.69450    24    25    17    23
 C    -1.31880   1.53050  -3.67700    25    24    11    15
 C     2.68040   1.83910  -2.93370    26   100    22    16
 C    -4.45740  -0.65950  -1.39960    27    28    13    30
 C    -4.65780   0.66980  -1.00390    28    29     4    27
 C    -4.72240   1.06790   0.29510    29    32    28    53
 C    -4.35660  -1.65090  -0.36220    30    31    35    27
 C    -4.44630  -1.18680   0.95260    31    46    32    30
 C    -4.60990   0.15310   1.25800    32    29    43    31
 C    -1.74930  -3.59730  -1.95710    33    36    34    39
 C    -2.92070  -2.92760  -1.77290    34    33    12    35
 C    -3.56500  -2.81470  -0.52880    35    34    30    38
 C    -1.18640  -4.24000  -0.95780    36    33    97    37
 C    -1.72580  -4.15250   0.30390    37    36    70    38
 C    -2.87940  -3.43430   0.58350    38    37    45    35
 C    -0.95630  -3.00680  -2.91680    39    20    33    40
 C     0.44260  -3.03990  -2.92230    40    39    96    41
 C     1.12230  -1.90060  -3.48070    41    91    40    18
 C    -2.35410  -0.74120   3.58410    42    44    47    49
 C    -3.93970   0.45780   2.41030    43    44    32    51
 C    -3.46320  -0.72510   2.85660    44    42    43    46
 C    -2.90610  -2.85570   1.87600    45    46    38    48
 C    -3.73980  -1.75370   1.99260    46    44    31    45
 C    -1.51150  -1.80340   3.54570    47    42    63    48
 C    -1.73940  -2.91350   2.73270    48    47    71    45
 C    -1.67180   0.41180   3.85520    49    42    55    50
 C    -2.07770   1.65870   3.39520    50    49    58    51
 C    -3.29620   1.69010   2.63240    51    52    43    50
 C    -3.44500   2.64160   1.60760    52    54    53    51
 C    -4.15890   2.30590   0.46300    53    29     3    52
 C    -2.41160   3.51290   1.40960    54    52    59     1
 C    -0.36150   0.04720   4.05640    55    49    56    63
 C     0.69790   0.91390   3.88860    56    55    67    57
 C     0.35780   2.25280   3.44930    57    61    58    56
 C    -1.02590   2.58240   3.18520    58    59    50    57
 C    -1.27360   3.52360   2.18210    59    74    54    58
 C     2.62380   2.38090   2.60760    60    77    68    61
 C     1.37360   2.97590   2.75250    61    60    73    57
 C     0.91180  -1.95750   3.53900    62    63    69    66
 C    -0.25800  -1.32860   3.88710    63    62    47    55
 C     2.95430  -2.79080   1.91560    64    72    81    65
 C     3.18300  -1.60750   2.61370    65    64    84    66
 C     2.09650  -1.14170   3.43800    66    65    62    67
 C     1.96220   0.29130   3.63050    67    68    56    66
 C     2.91290   1.09670   3.02250    68    60    85    67
 C     0.73240  -3.16740   2.80400    69    72    62    71
 C    -0.65360  -4.26990   1.15740    70    86    37    71
 C    -0.57580  -3.60710   2.37840    71    70    48    69
 C     1.80270  -3.51500   2.00200    72    64    88    69
 C     1.03560   3.90260   1.73050    73    74    75    61
 C    -0.27500   4.10410   1.45690    74    73    59     6
 C     1.88460   4.06570   0.65000    75    78    73     7
 C     4.26980   1.58940   1.30730    76    77    85    80
 C     3.47940   2.66230   1.56540    77    78    76    60
 C     3.08800   3.47340   0.57060    78    77    75    98
 C     4.84840  -0.04740  -0.21750    79    83    80    92
 C     4.68870   1.30350   0.00560    80    79    76    99
 C     3.46570  -3.02280   0.65000    81    82    87    64
 C     4.23950  -2.13430   0.06320    82    81    83    93
 C     4.61640  -1.01160   0.73930    83    82    79    84
 C     4.09820  -0.71560   2.00740    84    85    83    65
 C     3.94990   0.61830   2.24320    85    84    68    76
 C     0.45030  -4.48810   0.37780    86    88    97    70
 C     2.60180  -3.76890  -0.07970    87    88    81    95
 C     1.64820  -4.15450   0.79750    88    86    87    72
 C     3.95610   0.13570  -2.38170    89    92   100    90
 C     2.94870  -0.37690  -3.16320    90    89    16    91
 C     2.46740  -1.68870  -3.06050    91    90    41    94
 C     4.50710  -0.61870  -1.42820    92    89    93    79
 C     4.09490  -1.89890  -1.28030    93    92    82    94
 C     3.09290  -2.51420  -2.06540    94    95    93    91
 C     2.34700  -3.54450  -1.45970    95    96    94    87
 C     1.04390  -3.83480  -1.89870    96    95    97    40
 C     0.15700  -4.38960  -0.94760    97    36    86    96
 C     3.40060   3.18410  -0.72380    98    78    99    21
 C     4.18930   2.10750  -1.04370    99    98   100    80
 C     3.80160   1.47490  -2.20970   100    89    99    26
