   100
C100-C1-277                                                                     
 C     3.47180   1.58730   2.35590     1     3    20     2
 C     2.28040   2.25320   2.84540     2     4     8     1
 C     4.04470   2.07110   1.16780     3    62    36     1
 C     1.85910   3.36180   2.13660     4     5    63     2
 C     0.55430   3.76540   2.09420     5     4    69     6
 C    -0.50970   3.13180   2.74890     6     5    16     7
 C    -0.17010   1.95090   3.48330     7     6     8    11
 C     1.22740   1.56330   3.52470     8     9     2     7
 C     1.50530   0.24010   3.75180     9     8    19    13
 C    -2.53120   1.21630   3.16060    10    14    11    15
 C    -1.21660   0.94810   3.65150    11    10    12     7
 C    -0.83550  -0.44370   3.80390    12    13    30    11
 C     0.50830  -0.71540   3.87070    13    28    12     9
 C    -3.34570   0.09940   2.88040    14    96    29    10
 C    -2.83240   2.40720   2.42840    15    16    17    10
 C    -1.80010   3.32380   2.19310    16    15    18     6
 C    -3.86590   2.31750   1.46520    17    95   100    15
 C    -1.85530   4.00010   0.94810    18    68    98    16
 C     2.66680  -0.38940   3.34300    19    22     9    20
 C     3.67860   0.21700   2.59420    20    19     1    21
 C     4.38850  -0.62740   1.66620    21    24    35    20
 C     2.36260  -1.71240   3.25550    22    23    19    28
 C     3.04220  -2.49020   2.41360    23    22    24    26
 C     4.01980  -1.97590   1.62580    24    23    37    21
 C     0.35320  -4.28210   1.01130    25    27    34    42
 C     2.37210  -3.50080   1.79310    26    23    40    27
 C     1.04130  -3.76530   2.06750    27    25    26    32
 C     1.04530  -1.93250   3.53390    28    22    13    32
 C    -2.90420  -1.21390   2.93070    29    30    14    89
 C    -1.65230  -1.54770   3.36850    30    29    12    31
 C    -1.09590  -2.78780   2.87240    31    32    30    33
 C     0.30630  -2.96980   2.97940    32    28    27    31
 C    -1.80260  -3.48200   1.81300    33    34    90    31
 C    -0.99930  -4.16100   0.89510    34    25    85    33
 C     4.82540  -0.08310   0.43300    35    36    39    21
 C     4.64410   1.26290   0.22640    36    35     3    45
 C     3.96560  -2.71920   0.47440    37    38    40    24
 C     4.26070  -2.15350  -0.69500    38    37    39    54
 C     4.71730  -0.87170  -0.72610    39    38    43    35
 C     2.94480  -3.62420   0.54090    40    37    26    41
 C     2.18450  -3.96470  -0.57050    41    42    40    53
 C     0.90680  -4.35200  -0.26880    42    55    41    25
 C     4.32450  -0.34520  -1.93850    43    44    39    47
 C     4.13040   0.99050  -2.10140    44    43    45    46
 C     4.34750   1.80850  -1.02400    45    61    44    36
 C     3.09330   1.34640  -2.93330    46    44    59    50
 C     3.52150  -1.29570  -2.56720    47    54    49    43
 C     1.31700  -1.77790  -3.46410    48    49    52    57
 C     2.44770  -0.94180  -3.37090    49    50    47    48
 C     2.27450   0.41820  -3.53940    50    71    46    49
 C    -1.08650  -1.82000  -3.50860    51    52    77    58
 C     0.05970  -1.13890  -3.80620    52    51    70    48
 C     2.42300  -3.30060  -1.81110    53    54    41    57
 C     3.49780  -2.42720  -1.81010    54    47    38    53
 C    -0.11040  -4.23760  -1.14890    55    42    85    56
 C     0.06470  -3.57850  -2.36320    56    58    55    57
 C     1.31770  -3.02070  -2.68990    57    56    53    48
 C    -1.09040  -3.01360  -2.81880    58    56    87    51
 C     2.35660   2.49670  -2.75710    59    60    46    72
 C     2.61070   3.36720  -1.72090    60    59    65    61
 C     3.62360   2.95390  -0.84820    61    62    45    60
 C     3.50550   3.13070   0.49820    62    63    61     3
 C     2.45980   3.77900   0.97070    63    62    66     4
 C     0.21300   3.93070  -1.83980    64    67    74    65
 C     1.50980   4.08070  -1.24050    65    60    66    64
 C     1.52330   4.31860   0.14950    66    69    63    65
 C    -0.87550   4.20080  -1.04440    67    84    64    68
 C    -0.76330   4.44250   0.30960    68    69    18    67
 C     0.40460   4.41360   0.88470    69    68    66     5
 C    -0.11550   0.28940  -3.90420    70    71    52    75
 C     1.04900   1.00540  -3.75700    71    70    50    72
 C     1.09320   2.29510  -3.27700    72    71    74    59
 C    -1.32360   2.32400  -3.06750    73    83    74    75
 C    -0.03980   2.97240  -2.87430    74    72    64    73
 C    -1.36800   0.97060  -3.60790    75    78    70    73
 C    -3.05850  -2.07460  -2.58090    76    79    87    77
 C    -2.30710  -1.20920  -3.33440    77    76    51    78
 C    -2.52150   0.17590  -3.33830    78    77    75    81
 C    -4.06130  -1.65610  -1.83350    79    76    80    92
 C    -4.38960  -0.32940  -1.84970    80    97    79    81
 C    -3.62690   0.63930  -2.56330    81    82    80    78
 C    -3.56710   1.93060  -1.99710    82    81    99    83
 C    -2.42840   2.74920  -2.25060    83    84    82    73
 C    -2.11410   3.68180  -1.24840    84    67    98    83
 C    -1.31070  -4.22300  -0.44650    85    86    34    55
 C    -2.46490  -3.70660  -0.93730    86    85    87    93
 C    -2.30660  -3.12900  -2.19250    87    76    58    86
 C    -4.51890  -1.11010   1.43220    88    96    91    89
 C    -3.61720  -1.95890   1.99770    89    88    29    90
 C    -3.05790  -3.04400   1.33120    90    89    33    93
 C    -4.85790  -1.23750   0.12230    91    92    88    97
 C    -4.29240  -2.22590  -0.59530    92    91    79    93
 C    -3.42680  -3.18440  -0.05880    93    92    86    90
 C    -4.88370   1.10330  -0.08660    94    97    99    95
 C    -4.61860   1.22540   1.25600    95    96    17    94
 C    -4.38440   0.12560   1.97990    96    95    88    14
 C    -4.98490  -0.10070  -0.64150    97    94    80    91
 C    -2.74620   3.69190  -0.02240    98   100    18    84
 C    -4.23920   2.09930  -0.75190    99   100    94    82
 C    -3.74740   2.90660   0.22330   100    98    99    17
