   100
C100-C2-142                                                                     
 C     5.10650   0.59760   0.42660     1     5    52    18
 C     2.65340   3.67210  -0.48800     2     3    56     6
 C     3.73830   2.93670  -0.12950     3     2     4    50
 C     4.20920   2.09830  -1.13450     4     5     3     8
 C     4.90960   0.97310  -0.86440     5     4     1    19
 C     1.98360   3.51310  -1.71360     6    14     7     2
 C     2.31610   2.50990  -2.60250     7     8     6    10
 C     3.46920   1.85430  -2.30170     8     7    20     4
 C    -0.04460   2.43030  -3.19450     9    11    12    10
 C     1.26770   1.86310  -3.31970    10     7     9    23
 C    -1.11140   1.62610  -3.48230    11     9    99    22
 C    -0.35690   3.51880  -2.31680    12    14     9    13
 C    -1.67440   3.66630  -1.75320    13    98    15    12
 C     0.71970   3.97270  -1.57830    14     6    59    12
 C    -1.70640   4.12020  -0.42440    15    58    79    13
 C     4.78970  -1.65040  -0.20280    16    18    28    17
 C     4.57820  -1.24210  -1.50700    17    19    26    16
 C     5.00230  -0.73260   0.75640    18    16    37     1
 C     4.60550   0.05410  -1.81940    19    17     5    20
 C     3.66720   0.55530  -2.68340    20     8    19    24
 C     0.25180  -0.38070  -3.77900    21    22    23    31
 C    -0.96510   0.26900  -3.75110    22    89    21    11
 C     1.43290   0.43620  -3.63840    23    24    21    10
 C     2.65450  -0.21260  -3.29310    24    20    25    23
 C     2.66200  -1.60710  -3.00020    25    26    24    30
 C     3.66090  -2.04780  -2.08840    26    17    29    25
 C     2.31320  -3.68200  -1.22670    27    29    33    32
 C     4.00890  -2.72660   0.03720    28    16    29    35
 C     3.42900  -3.02440  -1.16740    29    27    26    28
 C     1.44550  -2.34750  -3.04960    30    32    31    25
 C     0.19930  -1.78750  -3.45380    31    30    21    49
 C     1.35250  -3.43010  -2.17660    32    47    27    30
 C     1.73340  -4.11670  -0.08220    33    42    27    34
 C     2.13750  -3.68740   1.20780    34    35    33    43
 C     3.32260  -2.94370   1.26240    35    34    36    28
 C     3.44330  -1.92800   2.23990    36    35    37    39
 C     4.32760  -0.86370   1.94120    37    38    18    36
 C     4.11110   0.41920   2.34790    38    41    37    52
 C     2.29960  -1.63700   3.06660    39    40    44    36
 C     2.17260  -0.30720   3.46490    40    41    67    39
 C     3.04350   0.67870   3.09140    41    38    53    40
 C     0.46390  -4.36050  -0.43290    42    45    33    47
 C     1.06300  -3.47110   2.12150    43    46    34    44
 C     1.08250  -2.37540   3.04580    44    39    43    73
 C    -0.47200  -4.35480   0.46660    45    42    96    46
 C    -0.19280  -3.89590   1.73560    46    74    45    43
 C     0.18000  -3.91530  -1.71080    47    32    48    42
 C    -1.07450  -3.48820  -2.10080    48    47    95    49
 C    -1.08760  -2.39800  -3.03350    49    90    48    31
 C     3.84760   2.54080   1.23120    50    52     3    51
 C     2.75740   2.85980   2.10680    51    53    55    50
 C     4.54340   1.34230   1.42820    52     1    38    50
 C     2.39600   1.86830   3.02220    53    41    60    51
 C     0.37140   3.53790   2.30050    54    57    62    55
 C     1.68640   3.67980   1.73030    55    56    51    54
 C     1.72010   4.12050   0.40200    56    59     2    55
 C    -0.71050   3.98560   1.56280    57    65    58    54
 C    -0.58250   4.40670   0.26980    58    59    15    57
 C     0.59800   4.40470  -0.29180    59    58    56    14
 C     1.11700   1.65420   3.48080    60    62    53    67
 C    -1.25780   1.89070   3.31040    61    64    62    71
 C     0.05310   2.45910   3.18670    62    60    54    61
 C    -3.45840   1.88310   2.27720    63    64    72    77
 C    -2.30010   2.53610   2.58390    64    63    65    61
 C    -1.97920   3.53750   1.69030    65    57    64    79
 C    -0.24570  -0.35310   3.78120    66    67    71    73
 C     0.96990   0.29780   3.75380    67    40    66    60
 C    -3.66350  -2.01980   2.09580    68    82    87    69
 C    -2.65710  -1.57590   3.00390    69    75    68    70
 C    -2.64600  -0.17660   3.28510    70    72    71    69
 C    -1.42480   0.46660   3.63340    71    70    66    61
 C    -3.65970   0.58150   2.66230    72    83    63    70
 C    -0.20230  -1.76060   3.46110    73    75    66    44
 C    -1.36860  -3.41040   2.19320    74    46    85    75
 C    -1.44710  -2.32210   3.05930    75    74    69    73
 C    -4.90170   0.99350   0.86020    76    77    83    80
 C    -4.20970   2.12700   1.11500    77    76    78    63
 C    -3.73260   2.95910   0.11120    78    79    77    97
 C    -2.65060   3.69440   0.46940    79    78    15    65
 C    -5.09100   0.59710  -0.43080    80    76   100    84
 C    -4.80780  -1.64170   0.21750    81    84    86    82
 C    -4.59270  -1.22180   1.51760    82    83    68    81
 C    -4.61160   0.07220   1.81740    83    82    76    72
 C    -5.00500  -0.73300  -0.75060    84    81    92    80
 C    -2.32910  -3.67410   1.24470    85    87    96    74
 C    -4.02680  -2.72230  -0.02600    86    81    87    94
 C    -3.43900  -3.00650   1.18270    87    85    68    86
 C    -3.03060   0.65120  -3.09220    88    91    99    89
 C    -2.16640  -0.33780  -3.46840    89    88    22    90
 C    -2.30460  -1.66280  -3.05990    90    89    49    93
 C    -4.09730   0.40580  -2.34110    91    88    92   100
 C    -4.32840  -0.88040  -1.93320    92    91    84    93
 C    -3.44450  -1.94830  -2.22780    93    94    92    90
 C    -3.32900  -2.95830  -1.24210    94    95    93    86
 C    -2.14510  -3.70160  -1.18010    95    94    96    48
 C    -1.74090  -4.12230   0.10850    96    45    85    95
 C    -3.83430   2.54510  -1.24210    97   100    78    98
 C    -2.74630   2.84450  -2.12340    98    99    13    97
 C    -2.39130   1.84880  -3.03000    99    88    11    98
 C    -4.52540   1.34210  -1.42930   100    80    91    97
