   100
C100-C1-51                                                                      
 C    -3.70170   2.31330  -2.04620     1     3     2    25
 C    -2.66230   2.31870  -2.91940     2     4    11     1
 C    -4.46080   1.20830  -1.90820     3     1    24    69
 C    -2.34370   1.21490  -3.60330     4     2     5    72
 C    -1.05680   0.90690  -3.85840     5     4    13     9
 C     2.31000   1.89950  -2.89710     6     7     8    38
 C     3.50390   1.24000  -2.60070     7    91    18     6
 C     1.27780   1.14520  -3.52230     8     9     6    17
 C     0.00570   1.74300  -3.55280     9     5     8    10
 C    -0.32080   2.93070  -2.79190    10    11    39     9
 C    -1.66770   3.11700  -2.46650    11     2    32    10
 C     0.20960  -1.13520  -3.68610    12    13    19    17
 C    -0.97160  -0.47540  -3.86560    13    12     5    71
 C     3.53580  -2.55810  -1.67240    14    95   100    15
 C     2.54780  -2.26410  -2.65000    15    14    21    16
 C     2.59980  -0.94160  -3.18080    16    18    17    15
 C     1.40870  -0.32890  -3.63790    17    16    12     8
 C     3.65240  -0.12590  -2.74620    18     7    96    16
 C     0.09360  -2.44890  -3.10030    19    21    12    74
 C     1.16440  -3.83020  -1.49800    20    73    98    21
 C     1.30710  -2.95490  -2.56720    21    20    19    15
 C    -4.61380   1.58210   0.46990    22    24    43    23
 C    -3.79110   2.76560   0.30860    23    25    27    22
 C    -4.91710   0.83770  -0.69080    24     3    41    22
 C    -3.35690   3.08250  -0.98150    25     1    32    23
 C    -1.66500   3.85820   1.02050    26    29    34    27
 C    -2.89880   3.17720   1.32230    27    28    23    26
 C    -2.87990   2.36930   2.46730    28    42    31    27
 C    -0.63610   3.73140   1.93390    29    37    30    26
 C    -0.68310   2.89540   3.00490    30    31    56    29
 C    -1.76300   2.21090   3.23410    31    30    52    28
 C    -2.11280   3.64130  -1.26430    32    34    11    25
 C     0.17620   4.09010  -0.67670    33    36    34    39
 C    -1.21950   4.05660  -0.32430    34    32    26    33
 C     2.40830   3.74310   0.17210    35    36    40    86
 C     1.11480   4.09580   0.37450    36    35    37    33
 C     0.67240   3.86520   1.65210    37    29    36    88
 C     1.97890   3.06100  -2.08920    38    40    39     6
 C     0.63970   3.50940  -1.94650    39    10    38    33
 C     2.87360   3.31590  -1.04340    40    92    35    38
 C    -4.95480  -0.54350  -0.71120    41    45    24    68
 C    -3.59790   1.22500   2.61140    42    28    43    46
 C    -4.48090   0.80220   1.65000    43    42    44    22
 C    -4.59000  -0.58130   1.59780    44    45    54    43
 C    -4.80060  -1.23760   0.40460    45    41    48    44
 C    -2.81380   0.35890   3.40100    46    53    52    42
 C    -2.54810  -3.26140   1.86160    47    49    64    61
 C    -4.13850  -2.42670   0.38900    48    45    49    66
 C    -3.62460  -2.53950   1.65260    49    47    54    48
 C     0.21930  -4.32480   0.38180    50    51    84    73
 C    -0.71160  -4.11880   1.25680    51    50    64    55
 C    -1.64850   0.95950   3.75450    52    46    31    58
 C    -2.86140  -0.99000   3.29660    53    46    54    60
 C    -3.82930  -1.42010   2.38830    54    49    44    53
 C    -0.41930  -3.45030   2.42900    55    61    51    62
 C     0.54290   2.41140   3.32340    56    88    30    57
 C     0.77320   1.09730   3.78140    57    56    58    77
 C    -0.40280   0.32060   3.97940    58    52    59    57
 C    -0.37230  -1.09140   3.82230    59    58    60    63
 C    -1.64950  -1.71410   3.50340    60    61    53    59
 C    -1.59060  -2.89140   2.79560    61    55    60    47
 C     0.84940  -2.95600   2.73570    62    55    83    63
 C     0.90710  -1.70570   3.45640    63    62    78    59
 C    -1.97130  -3.91980   0.83360    64    51    47    65
 C    -2.34580  -3.74170  -0.52340    65    66    64    75
 C    -3.47980  -2.95060  -0.75430    66    65    67    48
 C    -3.55580  -2.17900  -1.93420    67    66    68    70
 C    -4.37250  -1.01620  -1.87990    68    69    41    67
 C    -4.13130   0.08430  -2.62600    69    72    68     3
 C    -2.40530  -2.15090  -2.81740    70    71    74    67
 C    -2.22390  -0.96910  -3.53060    71    72    13    70
 C    -3.06700   0.08890  -3.43580    72    69     4    71
 C    -0.03350  -4.16010  -0.96110    73    20    50    75
 C    -1.22520  -2.91460  -2.59520    74    70    75    19
 C    -1.26300  -3.77620  -1.45480    75    73    65    74
 C     3.02250   1.38490   2.82680    76    79    87    77
 C     2.04390   0.52760   3.47490    77    57    76    78
 C     2.12600  -0.91990   3.31020    78    81    63    77
 C     4.08190   0.80650   2.14840    79    80    76    89
 C     4.19570  -0.55720   2.01210    80    79    97    81
 C     3.22930  -1.44650   2.52740    81    80    82    78
 C     3.08970  -2.65780   1.78380    82    83    99    81
 C     1.89160  -3.36660   1.87060    83    82    62    84
 C     1.48820  -4.04740   0.69390    84    50    98    83
 C     4.20490   2.51330   0.52910    85    86    89    92
 C     3.20660   3.14410   1.15420    86    85    87    35
 C     2.65320   2.67280   2.33610    87    88    86    76
 C     1.41470   3.11210   2.56400    88    87    56    37
 C     4.72410   1.38440   1.05650    89    93    85    79
 C     5.04670   0.55130  -1.11830    90    96    91    93
 C     4.38930   1.63120  -1.61880    91    92    90     7
 C     4.02260   2.63170  -0.82130    92    91    40    85
 C     5.20730   0.41660   0.25060    93    89    97    90
 C     4.66670  -1.83660   0.09990    94    97    99    95
 C     4.51090  -1.71270  -1.27130    95    96    14    94
 C     4.62910  -0.51570  -1.84500    96    95    90    18
 C     4.93990  -0.76870   0.85210    97    94    93    80
 C     2.10100  -3.90150  -0.49630    98   100    84    20
 C     3.80520  -2.75780   0.56010    99    94   100    82
 C     3.23460  -3.29220  -0.56260   100    98    14    99
