   100
C100-C1-315                                                                     
 C     1.18670  -3.81220   1.86730     1     6     2    60
 C     2.10680  -3.93700   0.88400     2     1     3     9
 C     3.25780  -3.20560   1.10480     3     4     2    59
 C     4.04210  -2.80260   0.08420     4     3     5    18
 C     3.59000  -2.97110  -1.18390     5    19     4    10
 C    -0.11880  -4.07870   1.66440     6     1    69     7
 C    -0.68340  -4.38200   0.41950     7     6    14     8
 C     0.22040  -4.29640  -0.69390     8     9     7    12
 C     1.61190  -4.15000  -0.44010     9    10     8     2
 C     2.39240  -3.57180  -1.42860    10     5     9    28
 C    -1.66840  -3.50490  -1.96180    11    29    13    12
 C    -0.31160  -3.74910  -1.92660    12    11    27     8
 C    -2.54040  -3.71580  -0.91500    13    14    11   100
 C    -2.05580  -4.08800   0.31180    14    13    15     7
 C    -2.73670  -3.47920   1.37350    15    68    97    14
 C     4.95020  -0.72770  -0.48630    16    18    34    17
 C     4.46760  -0.89860  -1.76800    17    19    26    16
 C     4.67510  -1.65430   0.44420    18    16     4    43
 C     3.77080  -1.98780  -2.09410    19    17     5    20
 C     2.67240  -1.90290  -2.89660    20    19    28    24
 C     0.21160   0.68050  -3.78210    21    22    37    23
 C    -1.17060   0.72320  -3.71580    22    32    21    49
 C     0.82840  -0.63240  -3.75440    23    24    21    31
 C     2.20340  -0.69440  -3.43360    24    20    23    25
 C     2.94750   0.47910  -3.10350    25    26    36    24
 C     4.07950   0.30120  -2.26220    26    17    35    25
 C     0.50370  -2.94940  -2.80160    27    28    12    31
 C     1.83600  -2.94120  -2.53290    28    27    20    10
 C    -2.21350  -2.52370  -2.75610    29    11    93    30
 C    -1.41270  -1.65080  -3.47990    30    32    29    31
 C    -0.02410  -1.80950  -3.52100    31    30    27    23
 C    -1.96160  -0.39560  -3.61870    32    22    30    96
 C     3.84010   2.36120  -1.28050    33    35    39    38
 C     4.89270   0.58220  -0.16890    34    16    35    41
 C     4.46300   1.21110  -1.31920    35    33    26    34
 C     2.27750   1.73530  -3.04790    36    38    25    37
 C     0.89460   1.87980  -3.37330    37    36    21    51
 C     2.81550   2.66490  -2.14070    38    53    33    36
 C     3.65590   2.98350  -0.08770    39    33    45    40
 C     3.91850   2.32180   1.12370    40    44    41    39
 C     4.50880   1.05530   1.10590    41    40    34    42
 C     4.08340   0.06210   2.06310    42    43    41    56
 C     4.22240  -1.26840   1.68220    43    59    18    42
 C     2.98650   2.59450   2.09820    44    48    40    55
 C     2.60800   3.83530  -0.26830    45    47    39    53
 C     0.53230   4.53170   0.44290    46    47    77    54
 C     1.80090   4.19450   0.75720    47    46    45    48
 C     1.99090   3.52200   1.94420    48    44    76    47
 C    -1.91430   1.78390  -3.22480    49    50    87    22
 C    -1.32350   2.91460  -2.70450    50    49    91    51
 C     0.11350   2.99400  -2.80180    51    52    50    37
 C     0.76720   3.84700  -1.86330    52    53    54    51
 C     2.08020   3.63700  -1.54950    53    38    52    45
 C     0.01380   4.41180  -0.84730    54    92    52    46
 C     2.51730   1.63400   2.97520    55    56    44    61
 C     3.00260   0.34580   2.97890    56    55    57    42
 C     2.06750  -0.65000   3.44270    57    58    56    63
 C     2.32430  -1.97120   2.97790    58    60    59    57
 C     3.36540  -2.24060   2.11730    59    43    58     3
 C     1.28490  -2.84490   2.87970    60    66    58     1
 C     1.22620   1.97750   3.35540    61    76    55    62
 C     0.24230   1.06820   3.75480    62    61    63    73
 C     0.68380  -0.29190   3.82220    63    65    62    57
 C    -1.73460  -0.92960   3.57840    64    67    74    65
 C    -0.35070  -1.27280   3.75200    65    66    63    64
 C     0.03300  -2.53430   3.28140    66    60    69    65
 C    -2.55980  -1.90120   2.96120    67    68    83    64
 C    -2.06230  -3.07600   2.47560    68    69    15    67
 C    -0.80330  -3.37680   2.61950    69    68    66     6
 C    -3.39840   0.66050   2.71260    70    75    82    74
 C    -2.57360   2.86150   2.19600    71    75    86    72
 C    -1.39670   2.72300   2.92550    72    71    78    73
 C    -1.14660   1.44660   3.55530    73    72    74    62
 C    -2.16300   0.42240   3.45090    74    64    73    70
 C    -3.51920   1.89690   2.09430    75    71    70    79
 C     0.92890   3.17340   2.74560    76    78    61    48
 C    -0.49610   4.31470   1.32120    77    84    46    78
 C    -0.34940   3.56220   2.49250    78    76    77    72
 C    -4.17790   2.08580   0.88620    79    80    85    75
 C    -4.75490   1.07260   0.26250    80    79    81    88
 C    -4.79190  -0.14470   0.85750    81    80    98    82
 C    -4.13480  -0.38160   2.07820    82    83    81    70
 C    -3.68120  -1.65210   2.22010    83    82    67    97
 C    -1.61720   4.26000   0.58280    84    86    77    92
 C    -3.55700   3.07390   0.18130    85    86    79    90
 C    -2.66670   3.61220   1.03640    86    84    85    71
 C    -3.15090   1.30480  -2.84060    87    96    49    89
 C    -4.65370   0.96610  -1.09680    88    80    94    89
 C    -3.88980   1.88560  -1.82710    89    87    90    88
 C    -3.32410   3.00830  -1.21360    90    89    85    91
 C    -2.08780   3.56450  -1.67430    91    92    90    50
 C    -1.32690   4.26320  -0.75920    92    54    84    91
 C    -3.44330  -2.17110  -2.22350    93    95   100    29
 C    -4.70070  -0.38440  -1.36220    94    95    88    98
 C    -3.96750  -0.91590  -2.39780    95    96    93    94
 C    -3.19170  -0.04140  -3.10770    96    95    87    32
 C    -3.79630  -2.62570   1.22310    97    15    99    83
 C    -4.83680  -1.08160  -0.16560    98    99    81    94
 C    -4.32120  -2.34040  -0.00910    99    98    97   100
 C    -3.63850  -2.89340  -1.07270   100    93    99    13
