   100
C100-C1-215                                                                     
 C     1.93690   1.47440   3.51950     1     6     2    60
 C     2.94970   1.94740   2.73910     2     1     3    10
 C     3.87220   0.98130   2.38010     3     4     2    59
 C     4.59150   1.06820   1.24460     4     3     5    14
 C     4.33470   2.08880   0.39230     5     4    15    11
 C     0.73290   2.08380   3.58100     6     1     8    75
 C    -0.91760   3.33460   2.61160     7    24     8    76
 C     0.42840   3.18940   2.80770     8     7     6     9
 C     1.36970   3.65600   1.84290     9     8    10    26
 C     2.65900   3.04280   1.86050    10    11     9     2
 C     3.38350   3.03210   0.67310    11     5    28    10
 C     4.85770  -0.38810  -0.54640    12    14    32    13
 C     4.57910   0.62770  -1.41350    13    15    17    12
 C     4.84170  -0.18310   0.78550    14    12     4    40
 C     4.32720   1.86460  -0.94460    15    13    16     5
 C     3.39540   2.64970  -1.53120    16    15    19    28
 C     3.86250   0.14100  -2.46390    17    13    33    18
 C     2.89940   0.88740  -3.13560    18    17    35    19
 C     2.67880   2.24180  -2.65660    19    22    16    18
 C    -0.44700   3.98700  -1.86100    20    29    93    21
 C     0.92410   3.80820  -1.86180    21    20    27    22
 C     1.45160   2.87480  -2.83460    22    19    23    21
 C     0.52160   2.15490  -3.58060    23    94    34    22
 C    -1.42240   3.95080   1.51050    24     7    97    25
 C    -0.57720   4.36510   0.48670    25    29    24    26
 C     0.83330   4.21020   0.60350    26    25    27     9
 C     1.58780   4.00680  -0.61610    27    28    21    26
 C     2.83210   3.44320  -0.52690    28    27    11    16
 C    -1.18630   4.29220  -0.75550    29    20    25   100
 C     2.92370  -3.31610  -0.83540    30    41    31    38
 C     3.84560  -2.52720  -0.22190    31    30    32    39
 C     4.33720  -1.52450  -1.05420    32    12    31    33
 C     3.74930  -1.21580  -2.28980    33    37    17    32
 C     0.68680   0.84270  -3.96680    34    35    23    49
 C     1.83840   0.13800  -3.73300    35    34    18    36
 C     1.69360  -1.28590  -3.58320    36    37    35    51
 C     2.70810  -1.93480  -2.81970    37    33    38    36
 C     2.38910  -3.05960  -2.10180    38    53    37    30
 C     3.73430  -2.31070   1.19380    39    40    31    43
 C     4.25140  -1.09290   1.62370    40    14    59    39
 C     1.99530  -4.00420  -0.12600    41    30    45    42
 C     1.82310  -3.81450   1.24640    42    44    41    43
 C     2.63750  -2.88440   1.93070    43    42    39    57
 C     0.53000  -4.03770   1.66370    44    55    42    48
 C     0.95000  -4.28990  -0.98170    45    47    41    53
 C    -1.33040  -4.15000  -1.33980    46    67    47    54
 C    -0.29590  -4.54620  -0.52830    47    45    48    46
 C    -0.49020  -4.44950   0.82620    48    69    47    44
 C    -0.57680   0.26880  -4.04000    49    50    85    34
 C    -0.81020  -1.07190  -3.85600    50    49    51    88
 C     0.36190  -1.89090  -3.64160    51    52    50    36
 C     0.14770  -3.10940  -2.94600    52    54    53    51
 C     1.17340  -3.63460  -2.17780    53    38    45    52
 C    -1.11960  -3.42360  -2.50160    54    89    52    46
 C    -0.04660  -3.32240   2.68620    55    44    56    61
 C     0.62380  -2.32710   3.36160    56    55    65    57
 C     2.02460  -2.12750   3.02560    57    58    56    43
 C     2.57620  -0.85930   3.32220    58    59    60    57
 C     3.67230  -0.38130   2.64530    59    40    58     3
 C     1.74620   0.12470   3.80940    60    66    58     1
 C    -1.41130  -3.32390   2.48830    61    55    63    69
 C    -3.36690  -2.11260   2.16770    62    71    63    70
 C    -2.22820  -2.30070   2.93930    63    61    62    64
 C    -1.65240  -1.21140   3.63380    64    63    65    73
 C    -0.22150  -1.27110   3.86880    65    66    56    64
 C     0.41870  -0.06820   4.06250    66    60    75    65
 C    -2.54150  -3.79150  -0.81990    67    46    68    82
 C    -2.76290  -3.75930   0.54380    68    70    69    67
 C    -1.68470  -4.04630   1.33870    69    48    68    61
 C    -3.61530  -2.80920   0.98510    70    68    84    62
 C    -3.96850  -0.89390   2.06910    71    62    77    72
 C    -3.51210   0.23480   2.73700    72    71    80    73
 C    -2.32810   0.08380   3.54520    73    74    72    64
 C    -1.54710   1.25310   3.71450    74    75    76    73
 C    -0.21290   1.14170   3.97400    75    74    66     6
 C    -1.87990   2.43100   3.07220    76    81    74     7
 C    -4.56150  -0.85380   0.82370    77    78    84    71
 C    -4.72920   0.30200   0.19490    78    77    79    90
 C    -4.42490   1.46040   0.83100    79    78    98    80
 C    -3.81950   1.47380   2.09690    80    81    79    72
 C    -2.97740   2.54200   2.28280    81    76    80    97
 C    -3.10580  -2.86080  -1.67820    82    83    89    67
 C    -4.00990  -1.92290  -1.25200    83    82    84    91
 C    -4.28000  -1.97210   0.12400    84    77    70    83
 C    -1.51550   1.22950  -3.75120    85    94    49    86
 C    -2.77410   0.98070  -3.21050    86    85    96    87
 C    -3.10940  -0.39100  -2.98960    87    86    91    88
 C    -2.12690  -1.39930  -3.35460    88    89    50    87
 C    -2.21050  -2.61270  -2.69620    89    54    82    88
 C    -4.50470   0.40360  -1.16280    90    95    78    91
 C    -4.04990  -0.67930  -1.92820    91    90    83    87
 C    -2.51610   3.16510  -2.15630    92    93   100    96
 C    -1.28950   3.30800  -2.69980    93    94    92    20
 C    -0.80920   2.37510  -3.50250    94    93    23    85
 C    -4.14290   1.70020  -1.37680    95    90    96    98
 C    -3.30190   2.03430  -2.40330    96    95    92    86
 C    -2.71570   3.49710   1.31910    97    99    81    24
 C    -4.12570   2.37910  -0.15340    98    99    79    95
 C    -3.27630   3.42880   0.07460    99   100    97    98
 C    -2.48480   3.83130  -0.95130   100    99    92    29
