   100
C100-C1-232                                                                     
 C    -3.93180  -0.91430   2.02520     1     2    62     4
 C    -4.01960   0.46900   2.14560     2     3    58     1
 C    -4.54340   1.27680   1.17120     3     6    17     2
 C    -4.39570  -1.47540   0.77400     4     8     5     1
 C    -4.81360  -0.56300  -0.20860     5     6    11     4
 C    -4.90530   0.76430  -0.02340     6     5     3    18
 C    -2.91490  -3.30790   1.11130     7     8    14    63
 C    -3.80190  -2.65550   0.30910     8     7     9     4
 C    -3.51280  -2.78050  -1.05510     9    10    12     8
 C    -3.76810  -1.77340  -1.91670    10    11     9    29
 C    -4.43280  -0.70890  -1.53450    11    10    19     5
 C    -2.42570  -3.46220  -1.54470    12    13     9    89
 C    -1.60760  -4.20620  -0.75050    13    12    14    97
 C    -1.90980  -4.11110   0.61190    14    69     7    13
 C    -3.65000   3.13560   0.08330    15    22    17    16
 C    -3.91610   2.57480  -1.12680    16    18    15    33
 C    -3.91510   2.47250   1.23530    17     3    15    39
 C    -4.54420   1.40520  -1.18230    18    16    19     6
 C    -4.15520   0.49750  -2.10950    19    18    11    31
 C    -0.39280   4.31090   0.69270    20    21    40    26
 C    -1.65680   4.00090   1.05870    21    20    22    38
 C    -2.52330   3.85040  -0.01280    22    15    21    23
 C    -2.07490   3.73590  -1.33240    23    25    33    22
 C    -0.21310   3.15000  -2.73400    24    25    28    36
 C    -0.77750   3.91460  -1.67340    25    23    26    24
 C     0.03770   4.33670  -0.63250    26    55    25    20
 C     1.75950   1.96620  -3.35700    27    85    37    28
 C     1.21010   3.07110  -2.73340    28    27    24    54
 C    -2.76760  -1.69400  -2.85320    29    89    10    30
 C    -2.34530  -0.47230  -3.40710    30    29    34    31
 C    -3.07020   0.69370  -3.00890    31    19    30    32
 C    -2.40090   1.95700  -2.95220    32    33    36    31
 C    -2.89640   2.86040  -1.99020    33    16    23    32
 C    -0.99180  -0.41190  -3.83120    34    30    35    91
 C    -0.37800   0.90140  -3.84510    35    37    36    34
 C    -1.03560   2.08370  -3.34020    36    32    35    24
 C     1.00680   0.92560  -3.84790    37    27    94    35
 C    -1.85380   3.24390   2.24760    38    39    42    21
 C    -3.00700   2.46680   2.25660    39    17    58    38
 C     0.68520   4.03440   1.48520    40    20    51    41
 C     0.58470   3.27260   2.65320    41    40    46    42
 C    -0.73680   2.79910   3.00860    42    38    41    43
 C    -0.86640   1.51180   3.66340    43    44    57    42
 C     0.31260   0.86420   3.94550    44    43    47    59
 C     2.96170   2.65320   2.19360    45    53    48    46
 C     1.76560   2.57120   2.98660    46    47    41    45
 C     1.55600   1.37880   3.66230    47    50    44    46
 C     3.80210   1.52350   2.17440    48    49    80    45
 C     3.50670   0.38620   2.85030    49    50    48    73
 C     2.40700   0.31860   3.58840    50    49    72    47
 C     1.80290   4.04600   0.67860    51    53    40    55
 C     3.71690   2.97110  -0.08080    52    79    56    53
 C     2.96230   3.39980   1.00340    53    51    52    45
 C     2.02800   3.63640  -1.70140    54    55    56    28
 C     1.37270   4.19260  -0.63740    55    26    54    51
 C     3.25290   3.07100  -1.38330    56    86    54    52
 C    -2.01240   0.66340   3.52410    57    58    43    61
 C    -3.07760   1.21410   2.84680    58    57    39     2
 C     0.42840  -0.51890   4.00770    59    60    72    44
 C    -0.62810  -1.37370   3.77720    60    59    65    61
 C    -1.92130  -0.78100   3.53660    61    60    57    62
 C    -2.89400  -1.53700   2.77410    62    63     1    61
 C    -2.47090  -2.77440   2.31610    63    66    62     7
 C     1.13100  -2.95810   2.94380    64    67    70    65
 C    -0.24430  -2.64930   3.27940    65    66    60    64
 C    -1.22960  -3.30420   2.56260    66    69    63    65
 C     1.35300  -3.83750   1.88730    67    68    76    64
 C     0.31790  -4.40500   1.19290    68    69    96    67
 C    -0.93430  -4.16170   1.54410    69    68    14    66
 C     2.15990  -2.02800   3.15080    70    72    64    71
 C     3.31910  -1.95520   2.28050    71    73    75    70
 C     1.74550  -0.84810   3.75180    72    50    59    70
 C     3.95850  -0.72460   2.17630    73    49    83    71
 C     4.01520  -2.27580  -0.08200    74    77    82    75
 C     3.41780  -2.78100   1.13550    75    76    71    74
 C     2.41490  -3.72890   1.01650    76    95    67    75
 C     3.42940  -2.74250  -1.27370    77    98    87    74
 C     4.47640   1.19690  -1.23660    78    79    86    81
 C     4.48300   1.83200  -0.02780    79    80    78    52
 C     4.52840   1.11050   1.09010    80    79    48    83
 C     4.51340  -0.20310  -1.36510    81    78    88    82
 C     4.58990  -0.98090  -0.15280    82    83    74    81
 C     4.59380  -0.26410   1.04240    83    80    73    82
 C     3.02360   0.14240  -3.24890    84    85    94    88
 C     2.99940   1.47370  -3.03110    85    86    84    27
 C     3.74190   2.00330  -2.06280    86    85    56    78
 C     3.27850  -1.97050  -2.39590    87    88    77    92
 C     3.79150  -0.71910  -2.46620    88    87    84    81
 C    -1.95330  -2.77700  -2.65770    89    29    90    12
 C    -0.64400  -2.80710  -3.06230    90    89   100    91
 C    -0.14140  -1.61450  -3.71100    91    93    90    34
 C     2.07850  -2.34560  -3.02040    92    99    93    87
 C     1.26200  -1.44830  -3.69570    93    94    92    91
 C     1.79870  -0.20100  -3.79620    94    93    37    84
 C     1.94280  -4.18260  -0.19020    95    98    96    76
 C     0.64820  -4.56160  -0.12230    96    95    68    97
 C    -0.27980  -4.37660  -1.16070    97    13    96   100
 C     2.41510  -3.64870  -1.30740    98    95    77    99
 C     1.55810  -3.40790  -2.35330    99    92    98   100
 C     0.20600  -3.70070  -2.33030   100    99    90    97
