   100
C100-Cs-345                                                                     
 C     3.47940  -3.01060   0.01570     1     6     2    55
 C     3.91520  -2.27580  -1.06590     2     1     3    10
 C     4.61530  -1.11670  -0.70620     3     4    54     2
 C     4.54260   0.01020  -1.47160     4     5    14     3
 C     3.80600   0.00890  -2.57600     5     4    11    15
 C     2.37170  -3.78750  -0.04810     6     1     8    73
 C     0.29970  -4.24140  -0.94830     7     8    25    74
 C     1.60030  -3.88530  -1.20080     8     7     6     9
 C     1.90970  -3.09400  -2.33620     9     8    10    27
 C     3.11010  -2.29720  -2.24590    10    11     2     9
 C     3.12590  -1.11120  -2.97660    11    29     5    10
 C     0.29260   4.24930  -0.91610    12    13    24    34
 C     1.59210   3.89470  -1.17020    13    12    32    18
 C     4.61030   1.12930  -0.69740    14     4    44    17
 C     3.12100   1.13710  -2.95780    15    19     5    16
 C     3.10820   2.32070  -2.21920    16    15    17    18
 C     3.91130   2.29140  -1.03890    17    31    14    16
 C     1.90510   3.11220  -2.31150    18    13    16    22
 C     2.07170   0.71290  -3.70520    19    15    21    29
 C    -0.16960   0.71240  -4.14210    20    38    21    30
 C     0.93610   1.46770  -3.84270    21    19    20    22
 C     0.78670   2.69890  -3.15240    22    21    23    18
 C    -0.57130   3.10480  -2.84710    23    24    39    22
 C    -0.76140   3.89730  -1.73470    24    23    12    41
 C    -0.75580  -3.88220  -1.76370    25    26     7    80
 C    -0.56530  -3.08080  -2.87210    26    25    98    27
 C     0.79280  -2.66990  -3.17560    27    28    26     9
 C     0.94050  -1.43480  -3.86190    28    29    30    27
 C     2.07570  -0.68880  -3.72060    29    11    28    19
 C    -0.17360  -0.69010  -4.15080    30    99    28    20
 C     3.47040   3.01340   0.04240    31    32    17    42
 C     2.36040   3.78560  -0.01660    32    31    13    36
 C    -1.53870   4.21890   0.28010    33    37    34    41
 C    -0.21170   4.40400   0.36470    34    33    12    35
 C     0.51010   4.08980   1.50780    35    36    34    48
 C     1.81360   3.83540   1.26490    36    35    46    32
 C    -2.19270   3.74720   1.33590    37    33    96    47
 C    -1.43030   1.13930  -3.86120    38    20    91    39
 C    -1.72080   2.32560  -3.19580    39    38    23    94
 C    -3.04390   3.11460  -1.25650    40    41    94    95
 C    -1.92790   3.90000  -0.99080    41    33    24    40
 C     3.61300   2.56570   1.35180    42    43    46    31
 C     4.23920   1.39250   1.64840    43    42    44    45
 C     4.77870   0.68470   0.60030    44    43    54    14
 C     3.67580   0.66500   2.67200    45    52    43    51
 C     2.53370   3.02270   2.07680    46    36    42    50
 C    -1.50360   3.31610   2.45460    47    70    48    37
 C    -0.14100   3.42630   2.58690    48    47    35    49
 C     0.53530   2.41520   3.35210    49    50    48    69
 C     1.92160   2.28470   3.09650    50    51    46    49
 C     2.53850   1.08560   3.34520    51    50    63    45
 C     3.68440  -0.69930   2.66760    52    45    53    56
 C     4.25390  -1.41610   1.63800    53    55    54    52
 C     4.78830  -0.69630   0.59910    54    53    44     3
 C     3.62590  -2.58100   1.33230    55    53    59     1
 C     2.54150  -1.11770   3.33420    56    58    63    52
 C     0.53970  -2.44280   3.32570    57    58    61    67
 C     1.92720  -2.31740   3.06880    58    56    59    57
 C     2.54130  -3.04780   2.04340    59    73    55    58
 C    -1.49810  -3.33970   2.41630    60    68    61    76
 C    -0.13450  -3.44950   2.54900    61    60    72    57
 C     0.45710  -0.01660   3.99680    62    63    69    67
 C     1.82770  -0.01840   3.75920    63    51    56    62
 C    -3.54920  -0.00790   2.84610    64    90    82    65
 C    -2.33760  -0.01930   3.59260    65    64    66    71
 C    -1.63160  -1.25410   3.65300    66    68    67    65
 C    -0.22070  -1.28890   3.83870    67    66    62    57
 C    -2.22390  -2.32760   2.96850    68    60    83    66
 C    -0.22510   1.25460   3.85270    69    71    62    49
 C    -2.22770   2.30070   2.99640    70    47    86    71
 C    -1.63700   1.21810   3.66620    71    70    65    69
 C     0.52360  -4.10880   1.46990    72    73    74    61
 C     1.82410  -3.86060   1.23120    73    72    59     6
 C    -0.21160  -4.40780   0.32930    74    77     7    72
 C    -3.31340  -3.03610   1.12830    75    76    83    78
 C    -2.19390  -3.76670   1.29970    76    77    75    60
 C    -1.53670  -4.22910   0.24720    77    76    74    80
 C    -3.81830  -2.67650  -0.14090    78    85    75    79
 C    -3.03790  -3.10880  -1.27380    79    80    97    78
 C    -1.92210  -3.89560  -1.01850    80    77    25    79
 C    -4.62070  -0.69290   0.98670    81    82    89    85
 C    -4.01830  -1.08430   2.15680    82    83    64    81
 C    -3.37590  -2.22240   2.22110    83    82    75    68
 C    -4.43330  -0.69840  -1.33020    84   100    85    87
 C    -4.51400  -1.44800  -0.18110    85    84    81    78
 C    -3.37120   2.20540   2.22860    86    90    96    70
 C    -4.43250   0.70830  -1.32550    87    93    88    84
 C    -4.51610   1.44930  -0.16770    88    87    89    95
 C    -4.62310   0.68320   0.98960    89    90    81    88
 C    -4.01720   1.06380   2.15590    90    86    64    89
 C    -2.19780   0.01400  -3.76380    91    92    99    38
 C    -3.30470   0.00710  -3.04650    92    91   100    93
 C    -3.69470   1.14340  -2.39830    93    92    87    94
 C    -2.94100   2.32380  -2.41880    94    93    40    39
 C    -3.82000   2.68020  -0.12320    95    96    88    40
 C    -3.31900   3.03300   1.14400    96    37    86    95
 C    -2.93710  -2.30850  -2.43010    97   100    79    98
 C    -1.71700  -2.29880  -3.21150    98    99    26    97
 C    -1.43290  -1.11100  -3.87230    99    30    91    98
 C    -3.69510  -1.12910  -2.40410   100    92    84    97
