   100
C100-C1-55                                                                      
 C     3.92350   2.62320   0.27160     1     2     6    66
 C     4.43090   1.45590   0.68830     2     1     3    10
 C     4.82610   0.60040  -0.33980     3     4     2    63
 C     4.99730  -0.70490  -0.15370     4     3     5    28
 C     4.77270  -1.24970   1.06190     5    16     4    11
 C     3.05520   3.34200   1.04440     6     1    68     8
 C     1.14440   3.27250   2.47210     7     8    77    13
 C     2.43680   2.78490   2.19270     8     7     6     9
 C     2.83560   1.48480   2.60750     9     8    10    14
 C     3.95080   0.88430   1.90910    10    11     2     9
 C     4.15550  -0.46720   2.03160    11    10    20     5
 C    -1.12740   2.73500   2.90600    12    37    80    13
 C     0.20740   2.41660   3.12470    13    12     7    18
 C     1.84930   0.60890   3.27670    14    19    18     9
 C     2.38590  -3.33360   2.14560    15    17    21    24
 C     4.31320  -2.51230   1.14710    16     5    17    26
 C     3.43260  -2.51990   2.18090    17    15    16    20
 C     0.49290   1.05570   3.49170    18    13    14    22
 C     2.07060  -0.80080   3.27590    19    20    14    23
 C     3.27310  -1.26870   2.71390    20    17    11    19
 C     1.20170  -2.96990   2.70460    21    15    44    23
 C    -0.63180   0.08560   3.59140    22    38    39    18
 C     0.96430  -1.72560   3.31390    23    21    39    19
 C     2.13950  -4.12840   1.06950    24    29    25    15
 C     2.91290  -3.99640  -0.02710    25    26    24    30
 C     4.01140  -3.21620   0.00230    26    25    27    16
 C     4.04600  -2.57480  -1.19840    27    28    26    50
 C     4.55110  -1.34920  -1.28350    28    27    49     4
 C     0.82150  -4.31860   0.98910    29    24    32    44
 C     2.25560  -3.83790  -1.22310    30    31    25    50
 C     0.91490  -4.04610  -1.37800    31    30    52    32
 C     0.14920  -4.43570  -0.21360    32    35    29    31
 C    -3.14610  -3.34670   0.91700    33    34    45    96
 C    -1.88000  -3.85060   1.05170    34    33    43    35
 C    -1.21240  -4.28520  -0.15730    35    32    36    34
 C    -1.82540  -3.91650  -1.33900    36    97    35    51
 C    -2.14650   1.85580   3.03590    37    12    98    38
 C    -1.98300   0.51720   3.36500    38    37    40    22
 C    -0.39340  -1.32400   3.42050    39    23    22    42
 C    -3.04490  -0.33860   2.94370    40    41   100    38
 C    -2.77110  -1.69740   2.68380    41    40    42    45
 C    -1.46420  -2.19950   2.90450    42    41    43    39
 C    -1.08810  -3.36190   2.12710    43    44    34    42
 C     0.21870  -3.68510   2.06900    44    43    21    29
 C    -3.60890  -2.34010   1.73730    45    33    94    41
 C     1.62430   2.78000  -2.81620    46    64    61    47
 C     2.53380   1.74380  -2.87960    47    46    62    59
 C     2.86210  -0.67870  -2.92680    48    49    54    59
 C     4.01760  -0.43260  -2.13860    49    28    63    48
 C     2.93880  -2.88790  -1.94730    50    27    30    54
 C    -1.07710  -3.33360  -2.35730    51    52    55    36
 C     0.27400  -3.29660  -2.39880    52    51    31    53
 C     0.91030  -2.17650  -3.06830    53    54    52    57
 C     2.28780  -1.97610  -2.80970    54    50    53    48
 C    -1.86740  -2.36430  -2.91990    55    90    51    56
 C    -1.34350  -1.16280  -3.41310    56    55    57    75
 C     0.07710  -1.05440  -3.50040    57    56    58    53
 C     0.63960   0.26740  -3.56910    58    57    59    60
 C     2.05880   0.44970  -3.28650    59    48    47    58
 C    -0.27700   1.39840  -3.41930    60    61    76    58
 C     0.27720   2.60770  -3.05160    61    46    60    71
 C     3.65430   1.88910  -2.00410    62    63    66    47
 C     4.32170   0.79630  -1.63260    63    62    49     3
 C     1.76290   3.86890  -1.99780    64    67    65    46
 C     2.74130   3.88320  -1.07020    65    66    64    68
 C     3.63980   2.91110  -1.06640    66    65    62     1
 C     0.53760   4.34870  -1.71390    67    70    64    71
 C     2.42810   4.22420   0.20640    68    69    65     6
 C     1.22380   4.68920   0.47630    69    68    77    70
 C     0.26460   4.84730  -0.49370    70    89    67    69
 C    -0.41050   3.59650  -2.35770    71    67    72    61
 C    -1.71720   3.44210  -1.91540    72    71    73    88
 C    -2.42450   2.30800  -2.39250    73    72    83    76
 C    -3.48750  -0.24020  -2.70710    74    92    82    75
 C    -2.21830  -0.02560  -3.26730    75    74    76    56
 C    -1.68960   1.27680  -3.17830    76    75    60    73
 C     0.60880   4.27260   1.60870    77    69    78     7
 C    -0.71470   4.40540   1.35120    78    80    77    89
 C    -2.74790   3.35040   1.49220    79    98    80    87
 C    -1.56430   3.69670   2.01780    80    78    79    12
 C    -4.95070  -0.02280  -1.04800    81    84    91    82
 C    -4.15440   0.69310  -1.93700    82    74    83    81
 C    -3.61870   1.94620  -1.68920    83    82    73    86
 C    -5.05190   0.43970   0.20810    84    81    85    93
 C    -4.54830   1.65120   0.50770    85    84    99    86
 C    -3.90900   2.52390  -0.40390    86    87    85    83
 C    -3.04690   3.49060   0.11180    87    86    88    79
 C    -2.03240   4.06650  -0.65380    88    87    89    72
 C    -0.95720   4.67270   0.01650    89    70    78    88
 C    -3.10620  -2.50370  -2.37710    90    92    55    97
 C    -4.80700  -1.34950  -1.26880    91    81    92    95
 C    -3.94060  -1.46840  -2.30120    92    90    91    74
 C    -4.83110  -0.42280   1.26540    93    94   100    84
 C    -4.62510  -1.71830   1.03700    94    93    95    45
 C    -4.70630  -2.24120  -0.21820    95    96    94    91
 C    -3.82070  -3.25390  -0.28350    96    97    95    33
 C    -3.07620  -3.44020  -1.38830    97    36    96    90
 C    -3.17170   2.31810   2.23370    98    99    79    37
 C    -4.09230   1.52270   1.80030    99    98   100    85
 C    -4.11580   0.23550   2.20550   100    99    93    40
