   100
C100-C1-111                                                                     
 C     3.72780   1.36080   2.23050     1     2    12    55
 C     4.04810   0.03890   2.23060     2     1     3     7
 C     4.79390  -0.38340   1.10810     3     4    43     2
 C     4.71040  -1.65290   0.65680     4     5     3    22
 C     3.96050  -2.53580   1.32490     5     4    23     8
 C     1.88470  -0.37430   3.47510     6    16    18     7
 C     3.13800  -0.84580   2.88280     7     8     2     6
 C     3.18910  -2.14800   2.39610     8    10     5     7
 C     0.94160  -2.57750   3.01520     9    11    10    18
 C     2.11120  -2.96670   2.42470    10     8     9    24
 C    -0.12720  -3.27200   2.53080    11    99     9    26
 C     2.58960   1.83750   2.85280    12    60     1    16
 C    -1.23030   3.16460   2.57090    13    94    14    61
 C     0.04900   2.85920   2.97820    14    13    59    15
 C     0.26620   1.54770   3.55730    15    16    14    19
 C     1.60750   1.02870   3.47030    16    12     6    15
 C    -0.62500  -0.77320   3.69140    17    19    98    18
 C     0.74530  -1.26950   3.57010    18     9     6    17
 C    -0.87550   0.64710   3.69720    19    17    95    15
 C     3.92950  -2.51300  -1.37740    20    22    21    30
 C     3.25060  -3.47500  -0.70590    21    20    23    38
 C     4.71570  -1.63820  -0.71240    22    29    20     4
 C     3.28440  -3.50090   0.64920    23    24    21     5
 C     2.17030  -3.81820   1.31140    24    23    25    10
 C     1.03620  -4.25230   0.67100    25    26    24    37
 C    -0.08470  -4.07030   1.37780    26    25    86    11
 C     3.77620   1.41250  -2.21280    27    28    35    44
 C     4.10480   0.08320  -2.24400    28    27    29    31
 C     4.82620  -0.36220  -1.12560    29    22    43    28
 C     3.16840  -2.10310  -2.44070    30    20    39    31
 C     3.19720  -0.79100  -2.91330    31    30    28    33
 C     0.87770  -1.21040  -3.61560    32    36    41    33
 C     1.99520  -0.30650  -3.51540    33    31    32    34
 C     1.71950   1.11780  -3.47650    34    35    51    33
 C     2.64380   1.90860  -2.81900    35    49    27    34
 C    -0.34560  -0.63770  -3.80800    36    32    93    50
 C     0.92510  -4.19150  -0.75020    37    38    25    42
 C     2.07700  -3.73370  -1.36640    38    21    39    37
 C     2.02900  -2.89410  -2.45790    39    41    38    30
 C    -0.39040  -3.13820  -2.55780    40    92    42    41
 C     0.84060  -2.52230  -3.02850    41    39    32    40
 C    -0.34970  -3.97220  -1.36690    42    87    37    40
 C     4.99730   0.43720   0.00240    43    45     3    29
 C     4.08060   2.24010  -1.14460    44    46    45    27
 C     4.62600   1.73590   0.02230    45    43    55    44
 C     3.16570   3.25380  -1.13780    46    44    47    49
 C     2.74860   3.83580   0.03050    47    48    46    56
 C     1.49770   4.34330   0.02120    48    47    58    54
 C     2.27840   3.07610  -2.19480    49    35    53    46
 C    -0.58330   0.73130  -3.78780    50    51    71    36
 C     0.39190   1.65000  -3.54510    51    50    34    52
 C    -0.04220   2.86810  -2.88980    52    53    51    70
 C     0.98030   3.55440  -2.19300    53    54    49    52
 C     0.63660   4.26930  -1.07010    54    64    53    48
 C     4.06240   2.21810   1.18530    55    56    45     1
 C     3.17110   3.23560   1.19880    56    55    47    60
 C    -0.55090   4.40200   0.71690    57    61    58    64
 C     0.71420   4.30290   1.14490    58    57    48    59
 C     1.05990   3.56060   2.28420    59    60    58    14
 C     2.30280   3.04440   2.25660    60    59    12    56
 C    -1.51680   3.92850   1.45290    61    57    62    13
 C    -2.67420   3.55430   0.89960    62    61    74    68
 C    -1.74620   3.78420  -1.30110    63    64    68    70
 C    -0.64850   4.33950  -0.64940    64    54    57    63
 C    -4.22550   0.53310  -2.17250    65    79    84    66
 C    -3.63310   1.82110  -2.10050    66    67    65    72
 C    -3.85550   2.52950  -0.89070    67    68    66    69
 C    -2.88950   3.46890  -0.50090    68    67    62    63
 C    -4.57220   1.82870   0.11640    69    80    73    67
 C    -1.44990   3.02190  -2.48110    70    72    63    52
 C    -1.90340   0.93140  -3.50340    71    82    50    72
 C    -2.41690   2.04100  -2.83040    72    71    70    66
 C    -4.16370   1.88470   1.43470    73    74    76    69
 C    -3.21900   2.70060   1.79700    74    73    62    94
 C    -4.94030  -0.09100   1.16240    75    77    76    80
 C    -4.27200   0.68350   2.06160    76    73    75    96
 C    -4.69690  -1.40490   1.14480    77    75   100    81
 C    -4.71080  -1.41020  -1.20910    78    81    83    79
 C    -4.96720  -0.05890  -1.18780    79    80    65    78
 C    -5.11070   0.59230  -0.02340    80    79    69    75
 C    -4.60410  -2.08730  -0.05080    81    78    89    77
 C    -2.47190  -0.30510  -3.44030    82    84    71    93
 C    -3.83160  -1.71540  -2.20500    83    78    84    91
 C    -3.60540  -0.51120  -2.81100    84    82    83    65
 C    -2.11630  -3.45310   1.71050    85    88    86    99
 C    -1.30100  -4.06690   0.81440    86    26    85    87
 C    -1.53840  -4.03650  -0.57380    87    86    90    42
 C    -3.28070  -2.99450   1.37180    88    85   100    89
 C    -3.67840  -3.07080   0.05940    89    81    88    90
 C    -2.77380  -3.47170  -0.95750    90    87    91    89
 C    -2.83450  -2.72030  -2.15400    91    90    83    92
 C    -1.62620  -2.51620  -2.87950    92    93    40    91
 C    -1.52030  -1.27960  -3.53000    93    82    36    92
 C    -2.29260   2.35920   2.76460    94    13    74    95
 C    -2.20880   1.08730   3.33180    95    94    96    19
 C    -3.27460   0.21380   2.97090    96    97    95    76
 C    -3.02980  -1.16470   2.95060    97    96   100    98
 C    -1.73090  -1.63190   3.29960    98    99    97    17
 C    -1.38280  -2.84500   2.70150    99    11    85    98
 C    -3.80130  -1.92200   2.02580   100    77    88    97
