   100
C100-C1-105                                                                     
 C    -3.79090   2.41400   1.39270     1     2    59    16
 C    -2.83250   3.37650   1.35820     2     1    61     5
 C    -0.30630   4.31400   1.17460     3     9     4    62
 C    -0.60350   3.55240   2.29600     4     5     3     7
 C    -1.90010   3.11160   2.34940     5     4    21     2
 C     1.76290   3.00950   2.42610     6     8    11     7
 C     0.41680   2.80380   2.92080     7     4     6    32
 C     2.68300   2.03050   2.70930     8     6    33    14
 C     0.95090   4.37270   0.66360     9     3    67    11
 C     3.14290   3.43290   0.39460    10    13    15    11
 C     2.05170   3.78500   1.25380    11     9    10     6
 C     4.63120   1.61780  -0.21730    12   100    94    13
 C     4.04640   2.42990   0.76300    13    14    10    12
 C     3.82440   1.77030   1.94970    14    13    96     8
 C     2.87680   3.52060  -0.98910    15    66    98    10
 C    -3.45770   1.53730   2.41320    16    17    21     1
 C    -3.87360   0.24150   2.41750    17    16    18    24
 C    -4.70410  -0.11210   1.34000    18    19    57    17
 C    -4.72770  -1.37660   0.87640    19    20    18    36
 C    -3.98010  -2.31870   1.48170    20    19    37    25
 C    -2.26220   1.93790   2.96310    21     5    16    22
 C    -1.33030   1.07020   3.53380    22    21    32    23
 C    -1.70270  -0.33130   3.54360    23    24    27    22
 C    -2.98720  -0.71050   3.00070    24    25    17    23
 C    -3.11340  -2.00190   2.49830    25    20    29    24
 C     0.68980  -0.85630   3.72630    26    30    27    31
 C    -0.64030  -1.31560   3.57690    27    26    23    28
 C    -0.83100  -2.62690   2.96210    28    29    43    27
 C    -2.06960  -2.89270   2.43730    29    28    25    41
 C     1.71610  -1.73040   3.34030    30    89    42    26
 C     1.02650   0.54070   3.72730    31    33    32    26
 C     0.03380   1.52890   3.55720    32    31    22     7
 C     2.33580   0.86740   3.35510    33    88     8    31
 C    -4.18380  -2.26060  -1.21230    34    36    35    52
 C    -3.55710  -3.29390  -0.59250    35    39    34    37
 C    -4.82690  -1.33860  -0.48920    36    34    50    19
 C    -3.43220  -3.32530   0.76050    37    20    35    41
 C    -0.27880  -4.08770  -1.53280    38    47    40    54
 C    -2.50020  -3.65730  -1.33620    39    35    40    51
 C    -1.38160  -4.22720  -0.77410    40    38    39    45
 C    -2.26550  -3.72290   1.33950    41    37    45    29
 C     1.50650  -2.92110   2.67490    42    43    30    85
 C     0.24730  -3.38900   2.40580    43    42    28    44
 C     0.09000  -4.18340   1.20240    44    45    46    43
 C    -1.20420  -4.26370   0.64130    45    41    44    40
 C     1.23640  -4.29190   0.34610    46    47    86    44
 C     0.96060  -4.20510  -1.02450    47    38    76    46
 C    -3.71960   1.64810  -2.01100    48    49    70    58
 C    -4.12820   0.35140  -2.03240    49    48    50    53
 C    -4.84650  -0.05610  -0.88640    50    36    57    49
 C    -2.42520  -2.77420  -2.42400    51    52    55    39
 C    -3.44200  -1.88390  -2.31070    52    51    34    53
 C    -3.31230  -0.57000  -2.75660    53    52    49    56
 C    -0.20960  -3.23430  -2.64330    54    77    55    38
 C    -1.24950  -2.44880  -3.04600    55    54    51    68
 C    -2.05330  -0.16680  -3.38520    56    69    68    53
 C    -4.91000   0.73530   0.25520    57    59    50    18
 C    -3.94830   2.49010  -0.92810    58    60    59    48
 C    -4.45690   2.00220   0.25260    59    57    58     1
 C    -3.00060   3.45480  -0.95770    60    58    61    63
 C    -2.46890   3.99970   0.19120    61    62     2    60
 C    -1.21110   4.46080   0.12440    62    61    65     3
 C    -2.19440   3.24050  -2.06580    63    64    70    60
 C    -0.92680   3.70050  -2.15070    64    63    65    72
 C    -0.48290   4.42490  -1.03440    65    67    62    64
 C     1.70890   3.95540  -1.48830    66    67    15    71
 C     0.80500   4.47820  -0.69780    67    66    65     9
 C    -0.98310  -1.13340  -3.55340    68    55    56    73
 C    -1.68680   1.21550  -3.34990    69    70    56    75
 C    -2.58400   2.06990  -2.67270    70    63    48    69
 C     1.32590   3.18350  -2.57380    71    84    72    66
 C     0.00590   2.94680  -2.90680    72    71    64    75
 C     0.41300  -0.71880  -3.70140    73    74    78    68
 C     0.75530   0.68370  -3.67900    74    73    83    75
 C    -0.31990   1.65470  -3.48290    75    69    72    74
 C     1.79910  -3.58570  -1.89890    76    79    47    77
 C     1.07060  -2.88130  -2.82800    77    54    76    78
 C     1.47400  -1.65690  -3.37040    78    77    81    73
 C     2.98670  -3.18150  -1.54170    79    76    80    87
 C     3.53210  -2.08850  -2.11860    80    79    97    81
 C     2.79700  -1.26340  -3.02020    81    82    78    80
 C     3.13330   0.09140  -3.01270    82    81    99    83
 C     2.12360   1.04470  -3.34650    83    84    82    74
 C     2.33210   2.31150  -2.79410    84    71    98    83
 C     2.62970  -3.17680   1.90840    85    86    91    42
 C     2.51300  -3.82410   0.70670    86    85    87    46
 C     3.40790  -3.33520  -0.24780    87    79    92    86
 C     3.29320  -0.04520   3.02500    88    89    96    33
 C     2.98100  -1.33820   3.01490    89    88    91    30
 C     4.47970  -1.72160   1.18910    90    92    91    95
 C     3.56790  -2.18730   2.12880    91    89    85    90
 C     4.34080  -2.34750  -0.04110    92    87    97    90
 C     4.76110  -0.35370  -1.21120    93    97    99    94
 C     4.99340   0.30190  -0.01690    94    12    93    95
 C     4.81610  -0.34770   1.19960    95    96    94    90
 C     4.20840   0.46150   2.15300    96    88    14    95
 C     4.45130  -1.63650  -1.21460    97    93    80    92
 C     3.33190   2.60530  -1.88050    98   100    15    84
 C     4.16900   0.48500  -2.11270    99   100    93    82
 C     4.20310   1.69640  -1.52540   100    98    99    12
