   100
C100-C1-302                                                                     
 C    -4.88400   0.38300  -0.57570     1     2    16    59
 C    -4.49800   1.69940  -0.60340     2    61     1     5
 C    -2.63270   3.66980  -0.78640     3     9     4    62
 C    -2.80810   2.89050  -1.92060     4     5     3     7
 C    -3.79590   1.93210  -1.78870     5    20     4     2
 C    -0.47630   3.38610  -2.48010     6     8    11     7
 C    -1.68430   2.66450  -2.77450     7     4     6    21
 C     0.70840   2.83090  -2.94020     8    14    24     6
 C    -1.44870   4.27970  -0.51200     9     3    67    11
 C     0.93570   4.41430  -0.70760    10    13    15    11
 C    -0.33350   4.23110  -1.33250    11     9    10     6
 C     3.15320   3.48350  -0.47110    12    94   100    13
 C     2.09210   3.87280  -1.27930    13    14    12    10
 C     1.94770   3.08550  -2.39960    14     8    13    96
 C     0.94440   4.43950   0.70450    15    66    98    10
 C    -4.45690  -0.19150  -1.75880    16    17     1    20
 C    -4.15330  -1.52560  -1.82780    17    16    18    19
 C    -4.27770  -2.27570  -0.68450    18    17    28    57
 C    -3.10790  -1.84660  -2.66110    19    17    26    23
 C    -3.75050   0.76140  -2.47680    20     5    22    16
 C    -1.60340   1.37670  -3.45900    21    22    25     7
 C    -2.66780   0.45530  -3.28540    22    23    20    21
 C    -2.39130  -0.89790  -3.36470    23    39    19    22
 C     0.78810   1.59750  -3.55450    24    25     8    40
 C    -0.31470   0.82010  -3.79340    25    24    38    21
 C    -2.26110  -2.90730  -2.41490    26    31    27    19
 C    -2.36940  -3.69530  -1.29400    27    26    28    34
 C    -3.40330  -3.31010  -0.43960    28    29    18    27
 C    -3.22510  -3.32510   0.90760    29    30    47    28
 C    -2.08980  -3.76980   1.40410    30    29    35    49
 C    -1.05050  -2.63950  -3.00460    31    26    32    39
 C     0.14250  -3.20640  -2.61170    32    31    43    33
 C     0.08930  -4.07710  -1.45250    33    37    34    32
 C    -1.17180  -4.23670  -0.78920    34    35    27    33
 C    -1.11350  -4.30070   0.61110    35    55    30    34
 C     2.45610  -3.65650  -1.21120    36    86    37    44
 C     1.29130  -4.21610  -0.70340    37    36    33    54
 C    -0.04220  -0.58930  -3.83300    38    39    25    42
 C    -1.13340  -1.39070  -3.59460    39    23    38    31
 C     2.06280   1.09030  -3.38640    40    96    24    41
 C     2.36980  -0.26670  -3.37200    41    40    90    42
 C     1.25420  -1.15800  -3.57430    42    38    41    43
 C     1.31640  -2.48290  -2.98450    43    44    32    42
 C     2.47160  -2.79830  -2.30380    44    43    91    36
 C    -3.60290  -0.30270   2.65130    45    46    70    58
 C    -3.28220  -1.62150   2.57490    46    45    47    50
 C    -3.87780  -2.30010   1.49580    47    29    57    46
 C    -0.20830  -3.46090   2.45120    48    49    52    55
 C    -1.51220  -3.15770   2.49130    49    48    30    50
 C    -2.01080  -2.00410   3.07770    50    49    46    53
 C     1.98940  -2.90720   2.56210    51    77    52    56
 C     0.73850  -2.65690   3.03970    52    51    48    68
 C    -1.03530  -1.05410   3.60150    53    69    68    50
 C     1.24430  -4.29060   0.72330    54    55    56    37
 C     0.03780  -4.23210   1.30600    55    54    35    48
 C     2.26030  -3.74530   1.46750    56    87    54    51
 C    -4.62270  -1.67290   0.51850    57    59    47    18
 C    -4.44350   0.31180   1.72260    58    60    59    45
 C    -4.92090  -0.34570   0.60610    59    57    58     1
 C    -4.09690   1.62780   1.69460    60    58    61    63
 C    -4.16670   2.38200   0.53730    61    62     2    60
 C    -3.26630   3.37670   0.42260    62    61    65     3
 C    -3.07670   1.82200   2.61890    63    64    70    60
 C    -2.19160   2.84350   2.53250    64    63    65    72
 C    -2.37400   3.67750   1.41750    65    67    62    64
 C    -0.17110   4.29940   1.43580    66    67    15    71
 C    -1.34610   4.31960   0.85770    67    66    65     9
 C     0.37760  -1.37930   3.58470    68    52    53    73
 C    -1.41810   0.32200   3.63240    69    70    53    75
 C    -2.72110   0.61860   3.17380    70    63    45    69
 C     0.06720   3.48080   2.52840    71    84    72    66
 C    -0.89040   2.64590   3.06550    72    71    64    75
 C     1.40500  -0.33740   3.58700    73    74    78    68
 C     0.99160   1.04860   3.57260    74    73    83    75
 C    -0.43520   1.37290   3.59640    75    69    72    74
 C     3.88100  -2.30510   1.66600    76    79    87    77
 C     2.97180  -1.96980   2.64200    77    51    76    78
 C     2.74170  -0.66460   3.10810    78    77    81    73
 C     4.62030  -1.36830   1.08480    79    76    80    88
 C     4.53360  -0.10090   1.54130    80    79    97    81
 C     3.62050   0.32010   2.55550    81    82    80    78
 C     3.20310   1.65140   2.50680    82    81    99    83
 C     1.93020   2.01840   3.03850    83    84    82    74
 C     1.38950   3.19950   2.51770    84    71    98    83
 C     4.20110  -2.30580  -1.02290    85    88    86    91
 C     3.52790  -3.31670  -0.42620    86    85    87    36
 C     3.40420  -3.33620   0.92280    87    56    86    76
 C     4.81630  -1.36750  -0.27750    88    92    85    79
 C     4.29580   0.34100  -1.90250    89    95    92    90
 C     3.54010  -0.63920  -2.64720    90    91    41    89
 C     3.54860  -1.94280  -2.16910    91    85    44    90
 C     4.88340  -0.09420  -0.69400    92    88    97    89
 C     4.42360   1.91250   0.39480    93    97    99    94
 C     4.01910   2.47080  -0.79070    94    12    93    95
 C     3.88420   1.68310  -1.93290    95    96    94    89
 C     2.79620   2.02960  -2.69520    96    95    40    14
 C     4.84410   0.67850   0.44660    97    93    92    80
 C     1.93340   3.89090   1.44820    98   100    15    84
 C     3.70580   2.43730   1.43050    99   100    93    82
 C     3.03580   3.46950   0.89630   100    98    99    12
