   100
C100-C1-172                                                                     
 C    -3.39000  -0.83860  -2.69790     1     2     6    65
 C    -3.54840   0.50440  -2.66000     2     1     3     9
 C    -4.33740   0.96700  -1.59820     3     4    62     2
 C    -4.17410   2.19670  -1.09280     4     3     5    21
 C    -3.25540   3.01150  -1.63470     5     4    22    10
 C    -2.25600  -1.43380  -3.22290     6    70     1     7
 C    -1.15850  -0.72260  -3.71630     7     6    17     8
 C    -1.27420   0.72350  -3.68970     8     9    12     7
 C    -2.49310   1.30710  -3.17920     9    10     2     8
 C    -2.41910   2.58550  -2.63320    10    14     5     9
 C     1.18330   0.82470  -3.73850    11    15    12    16
 C    -0.05870   1.51140  -3.64920    12    11     8    13
 C    -0.06030   2.82480  -3.00540    13    14    28    12
 C    -1.24880   3.28650  -2.50440    14    13    10    23
 C     2.31110   1.50600  -3.24580    15    27    98    11
 C     1.26540  -0.60950  -3.77090    16    18    17    11
 C     0.09610  -1.41930  -3.70120    17    16     7    73
 C     2.46660  -1.17290  -3.30840    18    74    97    16
 C    -3.61290   2.94330   1.03540    19    21    20    34
 C    -2.75600   3.84010   0.48570    20    22    19    24
 C    -4.35920   2.14690   0.25590    21    19    33     4
 C    -2.57260   3.88040  -0.85350    22    23    20     5
 C    -1.34460   4.09550  -1.36800    23    22    26    14
 C    -1.68890   3.99580   1.31000    24    20    25    35
 C    -0.43440   4.36210   0.84250    25    24    43    26
 C    -0.24790   4.42340  -0.59580    26    23    29    25
 C     2.26080   2.70530  -2.59010    27    15    28    91
 C     1.08850   3.38870  -2.38670    28    27    13    29
 C     0.99560   4.15800  -1.16460    29    30    26    28
 C     2.06140   4.05780  -0.28160    30    92    42    29
 C    -4.16910   0.32020   1.82100    31    47    33    32
 C    -3.30370   1.16640   2.62730    32    34    38    31
 C    -4.63940   0.87350   0.61650    33    21    62    31
 C    -3.07020   2.46480   2.18690    34    19    35    32
 C    -1.88650   3.14340   2.39910    35    36    34    24
 C    -0.84200   2.62510   3.12890    36    35    44    37
 C    -1.01500   1.29660   3.67490    37    38    36    41
 C    -2.24910   0.60440   3.40480    38    39    32    37
 C    -2.19120  -0.77310   3.42900    39    38    46    56
 C     1.38610   1.12890   3.71780    40    45    41    79
 C     0.17300   0.51160   3.93990    41    40    55    37
 C     1.88940   3.98370   1.08450    42    85    30    43
 C     0.63480   4.02380   1.68170    43    42    25    44
 C     0.43140   3.15990   2.82300    44    45    36    43
 C     1.51650   2.39520   3.20170    45    86    40    44
 C    -3.05500  -1.57320   2.70190    46    49    39    47
 C    -4.02240  -1.07810   1.82350    47    46    31    48
 C    -4.26400  -1.86800   0.64170    48    51    61    47
 C    -2.41600  -2.76460   2.52860    49    50    46    57
 C    -2.67940  -3.51090   1.45820    50    49    51    53
 C    -3.55510  -3.06730   0.52270    51    50    63    48
 C     0.58770  -4.47010   0.53330    52    84    54    68
 C    -1.66780  -4.23320   0.90160    53    50    54    66
 C    -0.39970  -4.26540   1.45530    54    52    53    59
 C     0.19820  -0.91810   3.88280    55    56    41    60
 C    -1.02470  -1.49790   3.65030    56    57    55    39
 C    -1.16170  -2.73230   3.07430    57    49    56    59
 C     1.21840  -2.95340   2.82400    58    59    83    60
 C    -0.08820  -3.47450   2.59920    59    57    58    54
 C     1.37650  -1.67600   3.50780    60    80    55    58
 C    -4.53860  -1.20650  -0.57510    61    62    65    48
 C    -4.73920   0.13120  -0.55110    62    61    33     3
 C    -3.05510  -3.54310  -0.66220    63    64    66    51
 C    -3.19250  -2.80590  -1.76400    64    63    65    70
 C    -3.92720  -1.68530  -1.73810    65    64     1    61
 C    -1.90430  -4.23600  -0.46370    66    63    67    53
 C    -0.87230  -4.21920  -1.38600    67    68    66    69
 C     0.35900  -4.43330  -0.84380    68    71    67    52
 C    -0.95800  -3.36800  -2.53250    69    70    73    67
 C    -2.15200  -2.68830  -2.65840    70    64     6    69
 C     1.48580  -3.99630  -1.44250    71    68    75    72
 C     1.45570  -3.18860  -2.58030    72    74    71    73
 C     0.20120  -2.76510  -3.10440    73    72    69    17
 C     2.55500  -2.39210  -2.70880    74    18    72    78
 C     2.46220  -3.86520  -0.46480    75    77    84    71
 C     4.00860  -2.41900   0.49350    76    77    99    82
 C     3.53060  -3.04530  -0.62930    77    75    78    76
 C     3.60500  -2.33950  -1.79480    78    77    96    74
 C     2.54370   0.42830   3.42070    79    80    40    88
 C     2.56440  -0.93880   3.28180    80    79    81    60
 C     3.52410  -1.39260   2.38960    81    82    80    89
 C     3.34520  -2.55510   1.70870    82    81    83    76
 C     2.23260  -3.35170   1.89580    83    82    84    58
 C     1.86140  -4.07230   0.76510    84    52    75    83
 C     2.93790   3.24490   1.56170    85    86    95    42
 C     2.74200   2.45340   2.61310    86    85    88    45
 C     4.27640   0.82620   1.73680    87    89    88    94
 C     3.38850   1.26890   2.70840    88    86    79    87
 C     4.33210  -0.54190   1.62630    89    99    87    81
 C     4.04280   1.57760  -1.78570    90    91    98    93
 C     3.32400   2.72780  -1.71510    91    92    90    27
 C     3.21300   3.37320  -0.56060    92    91    95    30
 C     4.66350   0.95970  -0.67730    93    90   100    94
 C     4.47410   1.62210   0.57360    94    95    87    93
 C     3.77680   2.83920   0.56070    95    92    85    94
 C     4.19350  -1.10800  -1.84830    96    97    78   100
 C     3.51480  -0.43660  -2.82420    97    98    96    18
 C     3.44190   0.87180  -2.79190    98    97    90    15
 C     4.59920  -1.17030   0.43910    99    89    76   100
 C     4.73770  -0.45050  -0.73730   100    99    96    93
