   100
C100-Cs-447                                                                     
 C    -4.88090   0.00380  -0.68300     1     5    22    59
 C    -3.26010   3.05570   1.35450     2    63     3     7
 C    -4.18810   2.28490   0.70150     3     2     4    61
 C    -4.45750   1.10140   1.35300     4     5     3     9
 C    -4.85740  -0.01110   0.67680     5    14     1     4
 C    -1.36080   3.26870   2.48470     6     7    11    65
 C    -2.55580   2.62560   2.47580     7     6     8     2
 C    -2.69660   1.37440   3.04390     8     7     9    19
 C    -3.73520   0.66030   2.46840     9    17     8     4
 C     0.91200   3.24040   2.59660    10    35    11    64
 C    -0.26130   2.72780   3.10180    11     6    10    20
 C    -3.26220  -3.07380   1.33640    12    23    13    15
 C    -4.18870  -2.29710   0.68780    13    12    14    21
 C    -4.46220  -1.12230   1.35130    14     5    13    17
 C    -2.56080  -2.65770   2.46610    15    30    16    12
 C    -2.70120  -1.41000   3.04330    16    15    17    18
 C    -3.74030  -0.69810   2.47180    17     9    16    14
 C    -1.56130  -0.74020   3.62790    18    16    19    39
 C    -1.55730   0.70690   3.62990    19     8    18    20
 C    -0.29460   1.41320   3.68790    20    11    37    19
 C    -4.19050  -2.28600  -0.73150    21    22    25    13
 C    -4.48430  -1.10570  -1.37210    22     1    21    43
 C    -2.43530  -3.90540   0.64900    23    24    26    12
 C    -2.40640  -3.88210  -0.69460    24    23    25    54
 C    -3.23550  -3.05320  -1.37080    25    24    21    41
 C    -1.28820  -4.08170   1.32780    26    23    27    30
 C    -0.10140  -4.36650   0.69050    27    28    26    53
 C     0.98480  -4.02240   1.41660    28    27    85    34
 C    -0.26390  -2.76130   3.09160    29    30    34    39
 C    -1.36450  -3.29470   2.47550    30    15    29    26
 C     3.28500  -0.68170   2.94260    31    40    32    91
 C     2.16880  -1.39570   3.34870    32    33    31    38
 C     2.08610  -2.63010   2.72710    33    34    32    93
 C     0.91320  -3.25890   2.58410    34    33    29    28
 C     2.08790   2.60750   2.74770    35    10    36    95
 C     2.16730   1.37010   3.36130    36    35    40    37
 C     0.96130   0.70350   3.79170    37    36    38    20
 C     0.95860  -0.74110   3.78750    38    32    37    39
 C    -0.29800  -1.44890   3.68220    39    29    38    18
 C     3.28910   0.66980   2.94850    40    31    36    97
 C    -2.53190  -2.62570  -2.48790    41    55    42    25
 C    -2.74070  -1.38470  -3.06140    42    41    43    50
 C    -3.77750  -0.66660  -2.48790    43    44    42    22
 C    -3.78360   0.69850  -2.47660    44    43    45    59
 C    -2.74060   1.41220  -3.04550    45    46    44    51
 C    -2.53290   2.64850  -2.45600    46    74    45    60
 C    -0.39640   1.46320  -3.70200    47    48    51    73
 C     0.73060   0.70280  -3.88320    48    75    47    52
 C    -0.39650  -1.43320  -3.71600    49    52    50    57
 C    -1.64460  -0.71510  -3.66280    50    42    49    51
 C    -1.64490   0.74650  -3.65500    51    45    47    50
 C     0.73370  -0.67830  -3.89070    52    90    49    48
 C    -0.01170  -4.31490  -0.72990    53    54    58    27
 C    -1.21270  -4.02240  -1.35260    54    24    55    53
 C    -1.29250  -3.23600  -2.47780    55    57    54    41
 C     1.11690  -3.12130  -2.58190    56    89    57    58
 C    -0.17750  -2.71110  -3.08220    57    55    49    56
 C     1.19950  -3.92310  -1.36220    58    53    86    56
 C    -4.49650   1.12630  -1.35850    59     1    61    44
 C    -3.23890   3.07790  -1.33960    60    62    61    46
 C    -4.19290   2.30230  -0.71640    61    59    60     3
 C    -2.40770   3.90060  -0.65820    62    63    60    67
 C    -2.43180   3.90380   0.68650    63    65    62     2
 C     0.99270   4.02110   1.44080    64    72    66    10
 C    -1.28500   4.08490   1.35660    65    63    66     6
 C    -0.09800   4.37150   0.72550    66    64    65    69
 C    -1.21470   4.03750  -1.32110    67    62    74    69
 C     1.19600   3.93150  -1.33840    68    69    71    77
 C    -0.01130   4.32320  -0.69670    69    67    68    66
 C     3.40630   2.98640  -0.91970    70    78    71    80
 C     2.35140   3.77640  -0.51150    71    70    72    68
 C     2.19600   3.80580   0.87470    72    64    95    71
 C    -0.17790   2.73650  -3.06100    73    74    47    77
 C    -1.29260   3.25660  -2.45070    74    73    67    46
 C     1.98880   1.12750  -3.54390    75    48    81    76
 C     2.22460   2.32320  -2.88160    76    75    78    77
 C     1.11860   3.13980  -2.56370    77    76    73    68
 C     3.36550   2.28750  -2.09080    78    70    84    76
 C     4.72800   1.17960  -0.69400    79    84    80    98
 C     4.23780   2.29130  -0.04350    80    96    79    70
 C     2.79030   0.01070  -3.39190    81    83    90    75
 C     4.18840  -1.16680  -1.96080    82    83   100    88
 C     3.90770   0.01150  -2.60790    83    81    84    82
 C     4.19220   1.18280  -1.96360    84    83    79    78
 C     2.19030  -3.80600   0.84420    85    28    93    86
 C     2.35660  -3.77040  -0.54270    86    87    85    58
 C     3.41110  -2.97840  -0.94040    87    88    86    94
 C     3.36140  -2.27440  -2.10740    88    87    89    82
 C     2.22320  -2.29590  -2.89980    89    90    88    56
 C     1.98920  -1.10190  -3.55610    90    52    81    89
 C     4.18620  -1.11160   1.96210    91    92    99    31
 C     3.97690  -2.28280   1.28780    92    93    91    94
 C     2.93860  -3.03370   1.70470    93    92    85    33
 C     4.24340  -2.28320  -0.06550    94   100    92    87
 C     2.94120   3.02260   1.72830    95    96    72    35
 C     3.98190   2.26910   1.30940    96    95    97    80
 C     4.19030   1.09380   1.97230    97    96    99    40
 C     5.01070   0.00380  -0.01110    98   100    99    79
 C     4.71880  -0.00370   1.34380    99    97    91    98
 C     4.74000  -1.16890  -0.69660   100    94    82    98
