   100
C100-C2-387                                                                     
 C    -3.47820  -1.36230   2.43350     1     2     6    66
 C    -3.84910  -0.05850   2.34120     2     1     3    10
 C    -4.62950   0.22760   1.20670     3     4    63     2
 C    -4.55790   1.45240   0.62460     4     5     3    29
 C    -3.87140   2.41440   1.21160     5     4    17    11
 C    -2.28440  -1.72950   3.03430     6    74     1     8
 C     0.01340  -1.28100   3.59660     7     8    13    77
 C    -1.34460  -0.82210   3.54240     8     6     7     9
 C    -1.69770   0.57010   3.48870     9     8    14    10
 C    -2.98500   0.91760   2.90010    10    11     2     9
 C    -3.11010   2.17860   2.33790    11    24     5    10
 C     2.32560  -0.66020   3.27560    12    78    96    13
 C     1.03660  -0.26750   3.64880    13    12    22     7
 C    -0.63180   1.55960   3.50150    14    23    22     9
 C    -2.09010   3.80330  -1.47240    15    16    21    35
 C    -3.22540   3.27640  -0.92690    16    15    28    17
 C    -3.29040   3.38390   0.47120    17     5    18    16
 C    -2.27250   3.90040   1.21910    18    20    17    24
 C    -0.03770   4.43420   1.31810    19    40    20    27
 C    -1.22350   4.52640   0.64630    20    18    19    21
 C    -1.15440   4.49540  -0.73450    21    42    15    20
 C     0.75670   1.14200   3.57440    22    13    14    25
 C    -0.90400   2.84850   2.93820    23    27    24    14
 C    -2.12620   3.09910   2.35260    24    11    23    18
 C     1.81340   2.02400   3.06060    25    26    97    22
 C     1.42270   3.22130   2.47900    26    27    25    92
 C     0.12280   3.60780   2.42540    27    26    23    19
 C    -3.79060   2.16470  -1.55800    28    16    29    31
 C    -4.56960   1.32670  -0.74480    29    30     4    28
 C    -4.77040   0.01190  -0.96340    30    33    29    63
 C    -3.07220   1.53030  -2.63870    31    32    36    28
 C    -3.30110   0.17910  -2.79830    32    33    31    55
 C    -4.15920  -0.55550  -2.01640    33    30    46    32
 C    -0.11540   3.58860  -2.45800    34    35    38    42
 C    -1.41670   3.19530  -2.52350    35    34    36    15
 C    -1.80800   1.99490  -3.09330    36    35    31    39
 C     2.12460   3.06590  -2.36650    37    56    38    43
 C     0.90460   2.80890  -2.96400    38    34    37    53
 C    -0.75880   1.10250  -3.59670    39    54    53    36
 C     1.16330   4.50170   0.67690    40    19    92    41
 C     1.23310   4.52670  -0.70670    41    43    42    40
 C     0.04530   4.43760  -1.36680    42    21    41    34
 C     2.28880   3.89250  -1.25140    43    41    94    37
 C    -3.01590  -3.61480  -0.72240    44    64    45    50
 C    -3.96010  -2.63370  -0.85640    45    44    46    62
 C    -3.75980  -1.84220  -1.98020    46    33    47    45
 C    -2.64540  -1.94120  -2.79840    47    49    55    46
 C    -0.37000  -2.64980  -3.07220    48    49    52    60
 C    -1.70040  -2.91650  -2.65420    49    47    50    48
 C    -1.96170  -3.80260  -1.60600    50    71    44    49
 C     1.93360  -2.99330  -2.49850    51    61    52    83
 C     0.63930  -3.46380  -2.46280    52    51    70    48
 C     0.62880   1.51890  -3.52230    53    38    39    58
 C    -1.04860  -0.30500  -3.65830    54    55    39    60
 C    -2.33650  -0.68590  -3.28410    55    47    32    54
 C     3.11010   2.14220  -2.34880    56    37    87    57
 C     2.97780   0.87810  -2.91290    57    56    90    58
 C     1.68880   0.52850  -3.50000    58    59    53    57
 C     1.33640  -0.86640  -3.54170    59    61    60    58
 C    -0.02300  -1.31420  -3.59440    60    59    54    48
 C     2.27670  -1.76730  -3.02450    61    51    91    59
 C    -4.47000  -1.99780   0.29940    62    63    66    45
 C    -4.87040  -0.69690   0.21160    63    62    30     3
 C    -2.54600  -3.99670   0.50230    64    65    67    44
 C    -2.89570  -3.29120   1.58810    65    64    66    74
 C    -3.82550  -2.32360   1.49270    66    65     1    62
 C    -1.29740  -4.47540   0.39200    67    64    71    68
 C    -0.35570  -4.30350   1.40030    68    69    67    73
 C     0.92440  -4.39920   0.97060    69    68    75    72
 C     0.33080  -4.33470  -1.36970    70    71    72    52
 C    -0.94640  -4.42440  -0.95190    71    70    50    67
 C     1.28500  -4.48800  -0.37150    72    84    70    69
 C    -0.65570  -3.43390   2.49500    73    74    77    68
 C    -1.94570  -2.96440   2.52710    74    73    65     6
 C     1.94090  -3.78080   1.63530    75    69    79    76
 C     1.68550  -2.88740   2.67830    76    78    75    77
 C     0.35810  -2.62310   3.09040    77    76    73     7
 C     2.63890  -1.92090   2.80630    78    76    12    81
 C     2.99290  -3.61460   0.74540    79    84    80    75
 C     3.93090  -2.62760   0.88040    80    79    81    86
 C     3.75500  -1.82000   1.99200    81    95    80    78
 C     3.80990  -2.33960  -1.48770    82    83    91    86
 C     2.88890  -3.32180  -1.56130    83    84    82    51
 C     2.53290  -4.01690  -0.47550    84    83    72    79
 C     4.83610  -0.69700  -0.20290    85    86    98    89
 C     4.43380  -2.00250  -0.28690    86    85    82    80
 C     3.88630   2.40210  -1.23480    87    88    94    56
 C     4.56760   1.43940  -0.64510    88    87    89    99
 C     4.61730   0.21090  -1.22410    89    88    85    90
 C     3.84230  -0.09630  -2.35670    90    91    89    57
 C     3.47360  -1.39450  -2.44300    91    90    61    82
 C     2.10210   3.82510   1.42840    92    93    40    26
 C     3.23890   3.29130   0.89550    93    92   100    94
 C     3.31240   3.38490  -0.50350    94    87    43    93
 C     4.15940  -0.53530   2.02150    95    98    81    96
 C     3.29490   0.20460   2.79630    96    95    97    12
 C     3.07960   1.55550   2.61400    97    96    25   100
 C     4.76510   0.02790   0.96560    98    95    99    85
 C     4.58680   1.34040   0.72760    99    98    88   100
 C     3.80810   2.18280   1.53110   100    93    99    97
