   100
C100-C1-267                                                                     
 C     0.61090   4.19800   0.99930     1     2     6    61
 C     1.45530   4.23020  -0.05750     2     1     3     9
 C     2.73800   3.77890   0.20060     3     4     2    60
 C     3.52670   3.27580  -0.76470     4     3     5    19
 C     2.97410   3.07080  -1.98400     5    20     4    10
 C    -0.74510   4.18080   0.86760     6     1    74     7
 C    -1.40890   4.08640  -0.35670     7     6    15     8
 C    -0.53970   3.89940  -1.49860     8     9     7    12
 C     0.86140   4.03750  -1.33920     9    10     8     2
 C     1.68110   3.38730  -2.24740    10     5     9    28
 C    -2.30840   2.62430  -2.47610    11    12    29    16
 C    -1.01180   3.02880  -2.55520    12    11    27     8
 C    -4.30380   2.13430   0.86580    13    98    79    14
 C    -3.32140   3.13910   0.93490    14    76    13    15
 C    -2.73010   3.59030  -0.30510    15    16     7    14
 C    -3.18650   2.95070  -1.44860    16    99    15    11
 C     4.74250   1.29710  -0.95140    17    19    37    18
 C     4.18070   1.08540  -2.18770    18    20    26    17
 C     4.36840   2.35840  -0.21980    19    17     4    47
 C     3.28300   1.94430  -2.66900    20    18     5    21
 C     2.17790   1.50190  -3.33640    21    20    28    24
 C     1.14680  -2.52330  -2.96210    22    40    39    23
 C     0.16360  -1.59290  -3.54420    23    34    32    22
 C     1.90720   0.14750  -3.59040    24    21    32    25
 C     2.88440  -0.77570  -3.09290    25    40    26    24
 C     3.99680  -0.23160  -2.39230    26    18    38    25
 C    -0.12530   2.17690  -3.30200    27    28    12    31
 C     1.19360   2.44160  -3.13650    28    27    21    10
 C    -2.73700   1.43540  -3.04190    29    94    11    30
 C    -1.84760   0.48670  -3.59310    30    31    29    33
 C    -0.48900   0.83600  -3.73980    31    30    27    32
 C     0.54200  -0.21250  -3.79590    32    24    23    31
 C    -2.23500  -0.86990  -3.45110    33    30    34    96
 C    -1.23230  -1.87020  -3.37830    34    35    33    23
 C    -1.57230  -2.98380  -2.60160    35    42    90    34
 C     4.17600  -2.02730  -0.96350    36    38    43    41
 C     4.93230   0.10480  -0.34900    37    17    38    45
 C     4.57660  -0.82880  -1.30300    38    36    26    37
 C     0.68730  -3.62050  -2.12900    39    42    53    22
 C     2.48350  -2.08160  -2.74010    40    25    41    22
 C     3.21070  -2.68990  -1.68520    41    54    36    40
 C    -0.67060  -3.77130  -1.98310    42    35    39    92
 C     4.12120  -2.38690   0.34850    43    36    49    44
 C     4.31160  -1.42880   1.35900    44    48    45    43
 C     4.69610  -0.12010   1.02670    45    44    37    46
 C     4.16700   0.98810   1.78470    46    47    57    45
 C     4.05910   2.20740   1.10940    47    60    19    46
 C     3.45570  -1.61310   2.42400    48    52    44    56
 C     3.22600  -3.41040   0.41980    49    43    51    54
 C     1.24900  -4.16720   1.38120    50    51    55    68
 C     2.47460  -3.61410   1.54460    51    50    52    49
 C     2.57970  -2.66940   2.52460    52    51    48    70
 C     1.44660  -4.12280  -1.03480    53    54    55    39
 C     2.68470  -3.62080  -0.84460    54    53    41    49
 C     0.77190  -4.49380   0.13520    55    93    50    53
 C     2.90220  -0.55240   3.10970    56    48    57    62
 C     3.20020   0.77040   2.82770    57    56    46    58
 C     2.16180   1.71190   3.15580    58    59    57    64
 C     2.15140   2.91800   2.39060    59    60    61    58
 C     3.07230   3.11850   1.39370    60    59    47     3
 C     0.95300   3.56820   2.19350    61    67    59     1
 C     1.68480  -0.97970   3.62000    62    70    63    56
 C     0.64380  -0.14120   3.92420    63    62    64    72
 C     0.89460   1.26400   3.72720    64    66    63    58
 C    -1.51060   1.51460   3.60410    65    66    75    73
 C    -0.25420   2.06790   3.56070    66    65    67    64
 C    -0.20020   3.19960   2.77630    67    61    66    74
 C     0.14730  -3.82530   2.15700    68    80    69    50
 C     0.20950  -2.83180   3.10980    69    68    70    71
 C     1.47810  -2.28520   3.26090    70    62    52    69
 C    -0.94320  -2.06290   3.38390    71    69    72    83
 C    -0.68220  -0.72190   3.86110    72    73    71    63
 C    -1.71970   0.15650   3.73500    73    72    88    65
 C    -1.27090   3.65480   2.02150    74    76     6    67
 C    -2.60530   2.03780   2.94970    75    77    65    76
 C    -2.51000   3.11320   2.07690    76    74    75    14
 C    -3.47990   1.02830   2.75700    77    79    75    88
 C    -4.74100  -0.07540   1.15710    78    79    97    86
 C    -4.35440   1.08250   1.76210    79    77    78    13
 C    -0.99620  -4.05480   1.45860    80    68    93    82
 C    -3.07570  -3.28270   0.53270    81    85    91    82
 C    -2.20030  -3.37950   1.66490    82    80    81    83
 C    -2.21300  -2.37120   2.68780    83    87    82    71
 C    -4.40780  -1.81980  -0.84610    84   100    89    85
 C    -4.06420  -2.28380   0.45260    85    81    86    84
 C    -4.19080  -1.34390   1.50800    86    85    78    87
 C    -3.23440  -1.38250   2.58460    87    88    83    86
 C    -2.93950  -0.15500   3.17830    88    77    73    87
 C    -3.65050  -2.15300  -1.94640    89    90    96    84
 C    -2.73170  -3.06270  -1.85920    90    89    91    35
 C    -2.50600  -3.71420  -0.69210    91    92    90    81
 C    -1.28260  -4.23690  -0.82940    92    93    91    42
 C    -0.56350  -4.49800   0.22750    93    92    55    80
 C    -3.91960   1.13430  -2.42570    94    95    99    29
 C    -4.28130  -0.14340  -2.28290    95    94    96   100
 C    -3.46540  -1.09300  -2.78050    96    95    89    33
 C    -5.07760   0.29370  -0.12410    97   100    78    98
 C    -4.77000   1.62530  -0.30070    98    99    13    97
 C    -4.18990   2.03610  -1.45080    99    98    94    16
 C    -4.86990  -0.57470  -1.11630   100    97    84    95
