   100
C100-C2-442                                                                     
 C    -4.93560   0.43340   0.33750     1     5    59    26
 C    -2.63250   3.61880  -0.54180     2     3    63     6
 C    -3.69950   2.84550  -0.19690     3     2     4    57
 C    -4.11590   1.98540  -1.20800     4     5     3     8
 C    -4.73820   0.80400  -0.94170     5     1     4    18
 C    -1.95260   3.49710  -1.76600     6    14     7     2
 C    -2.26090   2.52220  -2.69420     7     8     6    10
 C    -3.39540   1.80900  -2.38800     8    19     7     4
 C     0.11490   2.49640  -3.27910     9    11    12    10
 C    -1.19970   1.93550  -3.44400    10     7     9    20
 C     1.19270   1.70100  -3.58090    11     9    99    23
 C     0.40430   3.53780  -2.34100    12    14     9    13
 C     1.70960   3.65330  -1.73350    13    15    98    12
 C    -0.68930   3.96640  -1.60360    14     6    66    12
 C     1.71290   4.07920  -0.39470    15    65    82    13
 C    -3.36410  -2.11720  -2.33830    16    27    17    22
 C    -4.32120  -1.45040  -1.59760    17    18    16    25
 C    -4.41260  -0.10970  -1.89880    18     5    17    19
 C    -3.55930   0.51600  -2.79740    19     8    21    18
 C    -1.34910   0.53470  -3.82700    20    21    24    10
 C    -2.54940  -0.13800  -3.48160    21    22    19    20
 C    -2.50510  -1.49820  -3.23870    22    35    21    16
 C     1.04880   0.36090  -3.91490    23    24    36    11
 C    -0.16550  -0.27260  -3.99360    24    23    34    20
 C    -4.51400  -1.86790  -0.25490    25    29    26    17
 C    -4.79720  -0.89310   0.68790    26     1    43    25
 C    -2.66780  -3.17390  -1.84270    27    28    16    30
 C    -2.84160  -3.55950  -0.57180    28    27    31    29
 C    -3.72390  -2.90040   0.22350    29    28    25    41
 C    -1.43430  -3.26420  -2.41360    30    27    35    33
 C    -1.78110  -4.02950   0.13280    31    28    32    46
 C    -0.52790  -4.23630  -0.42000    32    31    54    33
 C    -0.33240  -3.82450  -1.79380    33    30    39    32
 C    -0.12510  -1.67850  -3.68630    34    35    24    38
 C    -1.33100  -2.21600  -3.30520    35    34    22    30
 C     2.22160  -0.28500  -3.61170    36    92    23    37
 C     2.30110  -1.62560  -3.23730    37    36    95    38
 C     1.07080  -2.34470  -3.22900    38    37    34    39
 C     0.93220  -3.41760  -2.26410    39    40    33    38
 C     1.99290  -3.63060  -1.40000    40    96    39    53
 C    -3.17150  -2.93080   1.49450    41    42    46    29
 C    -3.37890  -1.92080   2.39620    42    41    43    49
 C    -4.25110  -0.92320   1.95950    43    44    26    42
 C    -4.09710   0.37510   2.33720    44    45    43    59
 C    -3.09090   0.68830   3.15430    45    44    60    50
 C    -1.98030  -3.62210   1.44730    46    41    47    31
 C    -0.92010  -3.39900   2.30950    47    46    55    48
 C    -1.06510  -2.31390   3.26140    48    49    52    47
 C    -2.29880  -1.59560   3.25970    49    50    42    48
 C    -2.21800  -0.25290   3.62690    50    45    74    49
 C     1.33500  -2.18410   3.33240    51    52    56    75
 C     0.13030  -1.64050   3.71220    52    51    73    48
 C     1.79250  -4.03370  -0.08460    53    88    54    40
 C     0.53940  -4.23410   0.47490    54    53    32    55
 C     0.34560  -3.80920   1.84360    55    56    47    54
 C     1.44720  -3.24270   2.45390    56    89    51    55
 C    -3.82990   2.46300   1.16040    57    59     3    58
 C    -2.79090   2.83620   2.07940    58    60    62    57
 C    -4.47990   1.23820   1.35510    59    44     1    57
 C    -2.46110   1.89570   3.05840    60    45    67    58
 C    -0.41750   3.55640   2.32370    61    64    69    62
 C    -1.71950   3.66610   1.70950    62    63    58    61
 C    -1.72560   4.08070   0.37180    63    66     2    62
 C     0.68090   3.97810   1.58750    64    72    65    61
 C     0.57810   4.37460   0.28360    65    66    15    64
 C    -0.59240   4.37330  -0.30590    66    65    63    14
 C    -1.19630   1.73160   3.58340    67    69    60    74
 C     1.19240   1.96540   3.43700    68    71    69    77
 C    -0.12160   2.52750   3.27190    69    67    61    68
 C     3.38520   1.83380   2.36460    70    78    71    80
 C     2.24910   2.54700   2.67410    71    70    72    68
 C     1.94830   3.51910   1.74260    72    64    71    82
 C     0.16110  -0.23370   4.01180    73    74    52    77
 C    -1.05070   0.39640   3.93400    74    73    50    67
 C     2.51270  -1.46640   3.25220    75    51    76    84
 C     2.54160  -0.10090   3.48380    76    75    78    77
 C     1.34410   0.56890   3.83200    77    76    73    68
 C     3.55010   0.53950   2.78010    78    70    76    86
 C     4.73040   0.81910   0.93620    79    83    80    86
 C     4.11510   2.00710   1.18820    80    79    81    70
 C     3.69430   2.86290   0.17790    81    82    80    97
 C     2.62980   3.63700   0.52260    82    81    15    72
 C     4.92850   0.43100  -0.34220    83    79   100    90
 C     3.37150  -2.10100   2.36420    84    89    85    75
 C     4.32550  -1.43980   1.61440    85    86    84    91
 C     4.41380  -0.09600   1.89670    86    79    85    78
 C     3.73500  -2.90750  -0.18130    87    88    91    96
 C     2.85900  -3.56450   0.62080    88    89    87    53
 C     2.67960  -3.16720   1.88510    89    88    84    56
 C     4.81230  -0.89860  -0.67460    90    83    91    94
 C     4.52900  -1.86170   0.27320    91    90    87    85
 C     3.08470   0.67280  -3.14900    92    93    99    36
 C     4.08890   0.35840  -2.32910    93    92   100    94
 C     4.25590  -0.94180  -1.94480    94    93    90    95
 C     3.38110  -1.94210  -2.36970    95    96    94    37
 C     3.18250  -2.94190  -1.45610    96    95    40    87
 C     3.82090   2.46580  -1.17340    97   100    81    98
 C     2.78320   2.82390  -2.09880    98    99    13    97
 C     2.45960   1.87990  -3.06910    99    92    11    98
 C     4.46940   1.23580  -1.35660   100    93    83    97
