   100
C100-C2-376                                                                     
 C     2.34400   3.69490   1.10200     1     6     2    64
 C     2.47180   2.99880   2.28170     2     1     3    10
 C     3.48690   2.04390   2.25340     3     4    63     2
 C     3.35440   0.87460   2.92970     4     5     3    14
 C     2.26410   0.64590   3.64790     5     4    15    11
 C     1.14620   4.18580   0.69460     6     1     8    75
 C    -1.14570   4.16030   0.71650     7    27     8    76
 C     0.00210   4.06950   1.46020     8     7     6     9
 C     0.01580   3.30980   2.67160     9    10     8    29
 C     1.28830   2.77550   3.04340    10    11     2     9
 C     1.25740   1.56930   3.73460    11    31     5    10
 C     3.51670  -1.46690   2.34340    12    14    34    13
 C     2.34370  -1.71260   3.16110    13    15    19    12
 C     3.98310  -0.14840   2.27600    14     4    46    12
 C     1.76730  -0.60960   3.78610    15     5    16    13
 C     0.43210  -0.47490   4.07280    16    15    17    31
 C    -0.48190  -1.47670   3.84180    17    16    25    18
 C     0.02690  -2.68620   3.23060    18    22    17    19
 C     1.43370  -2.76580   2.88830    19    20    13    18
 C     1.78570  -3.55910   1.80250    20    43    33    19
 C    -2.22340  -3.01450   2.39920    21    26    87    22
 C    -0.90780  -3.45760   2.45980    22    21    42    18
 C    -3.28790   0.74700   2.95650    23    93    32    24
 C    -2.15020   0.38310   3.67540    24    23    30    25
 C    -1.82260  -1.02780   3.70730    25    26    17    24
 C    -2.67190  -1.87450   3.00740    26    21    94    25
 C    -2.32200   3.63280   1.14900    27     7    97    28
 C    -2.39240   2.87820   2.31320    28    32    27    29
 C    -1.21450   2.64330   3.07430    29    28    30     9
 C    -1.13780   1.37360   3.76890    30    31    24    29
 C     0.11540   0.88760   4.04120    31    11    30    16
 C    -3.40700   1.93560   2.28520    32    23    28   100
 C     2.88440  -3.29560   1.00010    33    36    20    34
 C     3.77960  -2.25070   1.19730    34    33    12    35
 C     4.38980  -1.67710   0.02430    35    38    45    34
 C     2.55920  -3.76260  -0.24810    36    37    39    33
 C     3.04080  -3.18000  -1.33880    37    36    38    55
 C     3.94570  -2.18170  -1.21210    38    37    47    35
 C     1.31440  -4.27480  -0.25390    39    36    43    40
 C     0.48390  -4.17530  -1.37580    40    41    39    54
 C    -0.83770  -4.20250  -1.07190    41    40    56    44
 C    -0.47160  -4.19690   1.33660    42    43    44    22
 C     0.84680  -4.22180   1.04400    43    42    20    39
 C    -1.31330  -4.28080   0.22430    44    88    41    42
 C     4.76620  -0.31560   0.02610    45    46    49    35
 C     4.58300   0.41810   1.17300    46    45    14    63
 C     3.74640  -1.40640  -2.31720    47    48    38    50
 C     4.05270  -0.12080  -2.27190    48    47    49    51
 C     4.59120   0.43070  -1.15340    49    48    61    45
 C     2.66790  -1.84570  -3.03950    50    55    47    53
 C     3.27380   0.78040  -2.94890    51    48    65    52
 C     2.14070   0.41780  -3.67470    52    51    67    53
 C     1.81500  -0.99140  -3.72610    53    50    59    52
 C     0.91850  -3.43680  -2.49920    54    55    40    58
 C     2.22970  -2.99600  -2.44410    55    50    37    54
 C    -1.78320  -3.54570  -1.83400    56    41    91    57
 C    -1.42680  -2.74410  -2.91530    57    56    83    58
 C    -0.02030  -2.65980  -3.25770    58    54    59    57
 C     0.47630  -1.43960  -3.85990    59    60    53    58
 C    -0.44060  -0.44000  -4.07920    60    84    59    66
 C     4.22070   1.75430  -1.17800    61    62    49    65
 C     4.07760   2.45580  -0.01390    62    61    64    63
 C     4.27380   1.77410   1.15770    63    62     3    46
 C     3.09930   3.41210  -0.02510    64    62    70     1
 C     3.39050   1.97090  -2.28040    65    51    69    61
 C    -0.12490   0.92330  -4.03600    66    71    67    60
 C     1.13010   1.41360  -3.75960    67    66    52    68
 C     1.20380   2.68040  -3.05700    68    69    67    73
 C     2.38230   2.91520  -2.29420    69    65    70    68
 C     2.30280   3.66180  -1.12790    70    75    64    69
 C    -1.27010   1.60320  -3.72920    71    66    77    72
 C    -1.30290   2.80430  -3.02900    72    71    80    73
 C    -0.03250   3.33850  -2.65150    73    72    74    68
 C    -0.01670   4.09540  -1.43720    74    75    76    73
 C     1.12950   4.18760  -0.70290    75    70    74     6
 C    -1.16870   4.18990  -0.68150    76    81    74     7
 C    -2.27310   0.67530  -3.64640    77    78    84    71
 C    -3.36080   0.88440  -2.91770    78    77    79    85
 C    -3.48900   2.05030  -2.23660    79    78    98    80
 C    -2.48170   3.01710  -2.26030    80    81    79    72
 C    -2.36700   3.70120  -1.07510    81    76    80    97
 C    -3.51920  -1.45990  -2.35610    82    85    90    83
 C    -2.34390  -1.69340  -3.17630    83    84    57    82
 C    -1.77680  -0.58180  -3.79410    84    77    60    83
 C    -3.98790  -0.14320  -2.27640    85    78    95    82
 C    -3.94910  -2.20430   1.19230    86    87    94    89
 C    -3.04150  -3.20420   1.29820    87    88    86    21
 C    -2.55730  -3.77710   0.20430    88    87    44    91
 C    -4.39210  -1.69090  -0.04620    89    86    96    90
 C    -3.78020  -2.26130  -1.22110    90    91    82    89
 C    -2.88970  -3.30650  -1.03830    91    88    56    90
 C    -4.60610   0.40080   1.16910    92    93   100    96
 C    -4.07110  -0.15490   2.28660    93    94    92    23
 C    -3.76450  -1.43590   2.30560    94    93    86    26
 C    -4.59020   0.40840  -1.16690    95    96    85    98
 C    -4.77300  -0.32890  -0.02350    96    95    92    89
 C    -3.12510   3.40440   0.04140    97    99    81    27
 C    -4.27580   1.76680  -1.14190    98    99    79    95
 C    -4.09470   2.44340   0.03840    99   100    97    98
 C    -4.24680   1.73070   1.18740   100    99    92    32
