   100
C100-C1-44                                                                      
 C     3.89020  -1.49120  -2.41500     1     2    19    12
 C     4.49990  -0.35760  -2.07820     2     1     3    18
 C     3.94570   0.81610  -2.46890     3     2    60     7
 C     2.46510   3.00080  -2.06530     4    62    59     6
 C     0.54700   2.08930  -3.23090     5     6    79     9
 C     1.94710   2.07280  -2.99490     6     7     4     5
 C     2.71750   0.90690  -3.19180     7     6    11     3
 C    -1.55440   0.77260  -3.54190     8    80     9    14
 C    -0.13510   0.86170  -3.65800     9     8    10     5
 C     0.61900  -0.36240  -3.72060    10     9    11    15
 C     2.04580  -0.30620  -3.52970    11    12     7    10
 C     2.70960  -1.46920  -3.11660    12    25     1    11
 C    -3.54470  -0.42000  -2.78610    13    83    96    14
 C    -2.25380  -0.47150  -3.35830    14    23    13     8
 C    -0.09420  -1.62350  -3.45770    15    24    23    10
 C     4.98620  -1.23620   0.04050    16    18    31    17
 C     4.39350  -2.41080  -0.31580    17    19    16    39
 C     5.09550  -0.21240  -0.84600    18    45    16     2
 C     3.87840  -2.54650  -1.56430    19    20     1    17
 C     2.75270  -3.24090  -1.76020    20    19    21    25
 C     2.10840  -3.89940  -0.73430    21    22    20    38
 C     0.79810  -4.11900  -0.98830    22    40    21    28
 C    -1.51970  -1.66760  -3.21560    23    14    15    26
 C     0.68440  -2.69490  -2.93330    24    25    28    15
 C     2.03140  -2.59980  -2.77830    25    24    12    20
 C    -2.11170  -2.70550  -2.36510    26    27    97    23
 C    -1.21490  -3.57810  -1.78400    27    28    26    92
 C     0.10000  -3.58880  -2.07110    28    27    24    22
 C     3.54160   0.46480   2.77010    29    46    30    35
 C     4.49880   0.34270   1.77790    30    29    31    44
 C     4.64760  -0.96680   1.33250    31    16    30    32
 C     3.84070  -2.02400   1.76950    32    39    34    31
 C     1.68770  -2.67250   2.70840    33    34    37    42
 C     2.84510  -1.86250   2.71450    34    35    32    33
 C     2.74870  -0.58540   3.22210    35    51    34    29
 C    -0.70620  -2.69340   3.00320    36    37    69    43
 C     0.49310  -2.12760   3.32800    37    36    50    33
 C     2.54350  -3.69380   0.61250    38    39    21    42
 C     3.68860  -2.92540   0.74330    39    17    32    38
 C    -0.10280  -4.31850  -0.00720    40    22    92    41
 C     0.24100  -4.07840   1.31880    41    43    40    42
 C     1.54490  -3.65790   1.64020    42    41    38    33
 C    -0.83870  -3.66730   2.03770    43    41    94    36
 C     4.67260   1.44270   0.87990    44    45    48    30
 C     4.94860   1.07890  -0.45810    45    18    60    44
 C     2.82570   1.60740   2.97430    46    29    47    52
 C     3.00050   2.70540   2.17230    47    46    49    48
 C     3.89940   2.62210   1.08020    48    58    47    44
 C     1.83660   3.45000   2.07820    49    56    47    55
 C     0.38670  -0.77040   3.79070    50    51    37    53
 C     1.56680  -0.07100   3.70350    51    52    50    35
 C     1.60790   1.28130   3.56370    52    51    54    46
 C    -0.87020  -0.02100   3.78500    53    70    71    50
 C     0.44580   2.01230   3.45370    54    55    52    71
 C     0.63110   3.14020   2.69150    55    76    54    49
 C     1.50240   4.11230   0.94730    56    57    61    49
 C     2.28200   3.98050  -0.11710    57    56    58    62
 C     3.44710   3.29510  -0.07290    58    57    59    48
 C     3.60860   2.78750  -1.32540    59    60    58     4
 C     4.34160   1.72300  -1.51840    60    59     3    45
 C     0.16040   4.22410   0.84740    61    56    76    64
 C     1.65740   3.81890  -1.33040    62     4    63    57
 C     0.30670   3.90500  -1.51040    63    62    79    64
 C    -0.50540   4.22870  -0.36360    64    67    61    63
 C    -3.68360   2.82330   0.78400    65    66    87    77
 C    -2.49500   3.50660   0.91570    66    65    75    67
 C    -1.85280   3.94210  -0.31120    67    64    68    66
 C    -2.39580   3.46060  -1.48980    68    88    67    78
 C    -1.91420  -2.04660   3.12620    69    89    36    70
 C    -2.06840  -0.69920   3.47310    70    69    53    72
 C    -0.83630   1.41420   3.55220    71    54    53    74
 C    -3.22570  -0.04220   2.97020    72    91    70    73
 C    -3.16600   1.34610   2.66470    73    77    74    72
 C    -1.96910   2.07200   2.91060    74    73    75    71
 C    -1.69130   3.21370   2.05040    75    76    66    74
 C    -0.40540   3.66810   1.97670    76    55    75    61
 C    -4.03530   1.79940   1.64740    77    85    65    73
 C    -1.58020   2.96030  -2.50260    78    79    80    68
 C    -0.23490   3.09970  -2.54470    79    78    63     5
 C    -2.24100   1.89460  -3.05620    80    81    78     8
 C    -3.48550   1.87490  -2.50940    81    83    80    88
 C    -5.00770   0.52310  -1.35830    82    95    83    86
 C    -4.17340   0.73620  -2.40640    83    81    82    13
 C    -4.92150  -0.31870   1.21530    84    85    91    98
 C    -4.91100   0.99260   0.94360    85    84    86    77
 C    -5.03470   1.44750  -0.33430    86    87    85    82
 C    -4.29750   2.57340  -0.42540    87    88    86    65
 C    -3.57620   2.82290  -1.53410    88    68    87    81
 C    -2.78090  -2.69140   2.28810    89    90    94    69
 C    -3.86460  -2.10380   1.82360    90    89    91    99
 C    -4.13130  -0.81990   2.20020    91    84    90    72
 C    -1.37120  -4.10520  -0.51860    92    93    27    40
 C    -2.46230  -3.80900   0.22190    93    92    94   100
 C    -2.12160  -3.60980   1.55590    94    89    43    93
 C    -4.96190  -0.80220  -1.08680    95    98    82    96
 C    -4.07040  -1.41190  -1.96730    96    97    13    95
 C    -3.34320  -2.54620  -1.66520    97    96    26   100
 C    -4.99990  -1.24780   0.18930    98    99    95    84
 C    -4.31280  -2.34920   0.54110    99    98    90   100
 C    -3.52380  -3.09900  -0.34080   100    93    99    97
