   100
C100-C1-69                                                                      
 C     3.67900  -1.33970  -2.29840     1     2    61     5
 C     4.52610  -0.42940  -1.65460     2    23    54     1
 C     1.36120  -2.80620  -2.76900     3     8     4    60
 C     1.45500  -1.60310  -3.42690     4     3    11     5
 C     2.65670  -0.82040  -3.17250     5     6     1     4
 C     2.54850   0.60620  -3.28330     6     7    22     5
 C     1.32760   1.08850  -3.68060     7     6    29    12
 C     0.15410  -3.38180  -2.45630     8    67     3     9
 C    -1.10760  -2.87320  -2.77350     9     8    10    19
 C    -1.12240  -1.64450  -3.48730    10     9    14    11
 C     0.18230  -1.05360  -3.79390    11    12     4    10
 C     0.20600   0.30480  -3.95300    12    16    11     7
 C    -3.43440  -1.26320  -2.55890    13    17    18    14
 C    -2.32180  -0.82090  -3.36610    14    15    13    10
 C    -2.18860   0.59540  -3.55400    15    16    36    14
 C    -0.91650   1.06860  -3.83610    16    12    28    15
 C    -4.29770  -0.27600  -2.00890    17    96    35    13
 C    -3.34120  -2.47860  -1.81870    18    19    20    13
 C    -2.17990  -3.25710  -1.91770    19    18    21     9
 C    -4.04320  -2.53040  -0.58100    20    95   100    18
 C    -1.81110  -3.96980  -0.75170    21    66    98    19
 C     3.36180   1.50460  -2.52460    22    23     6    25
 C     4.36930   0.93880  -1.75720    23    24     2    22
 C     4.83180   1.48690  -0.58090    24    27    39    23
 C     2.79290   2.75140  -2.05100    25    26    30    22
 C     3.21040   3.19680  -0.79910    26    27    25    46
 C     4.19300   2.57510  -0.09930    27    24    26    40
 C    -0.47120   2.30400  -3.46960    28    31    29    16
 C     0.86670   2.33400  -3.32530    29    28     7    30
 C     1.51270   3.16090  -2.41730    30    29    25    33
 C    -1.25170   3.09730  -2.75420    31    28    34    32
 C    -0.70730   3.85660  -1.76760    32    31    47    33
 C     0.64810   3.90590  -1.53410    33    32    45    30
 C    -2.51430   2.74130  -2.47930    34    31    92    36
 C    -4.07380   1.07620  -2.14440    35    36    17    90
 C    -3.04770   1.52420  -2.90570    36    35    34    15
 C     4.89190   0.56860   1.58250    37    38    55    39
 C     4.19330   1.63760   2.03330    38    40    37    42
 C     5.24090   0.49300   0.25100    39    54    24    37
 C     3.88030   2.66340   1.22330    40    38    41    27
 C     2.71960   3.33830   1.35970    41    40    46    44
 C     3.23690   1.20460   2.92560    42    43    38    56
 C     2.04750   1.86430   3.13470    43    42    58    44
 C     1.78130   3.05050   2.33750    44    41    50    43
 C     1.02520   4.10790  -0.18890    45    46    33    49
 C     2.31900   3.77050   0.10740    46    45    41    26
 C    -1.68750   3.96250  -0.81240    47    32    48    92
 C    -1.36960   4.03060   0.53550    48    47    86    49
 C     0.03430   4.07830   0.85920    49    48    45    50
 C     0.47330   3.48350   2.09910    50    51    44    49
 C    -0.48880   2.84200   2.82770    51    87    50    59
 C     4.70560  -1.78630   0.26930    52    62    54    53
 C     4.32470  -1.69640   1.59330    53    55    70    52
 C     5.09270  -0.68150  -0.40540    54    52    39     2
 C     4.38060  -0.51790   2.21950    55    53    37    56
 C     3.33380  -0.16870   3.04070    56    55    42    57
 C     2.23090  -0.99730   3.33540    57    56    68    69
 C     0.98400   1.07510   3.63250    58    59    43    68
 C    -0.23730   1.66570   3.54220    59    77    58    51
 C     2.31590  -3.22960  -1.86500    60    61    65     3
 C     3.46100  -2.55770  -1.60980    61    60    62     1
 C     3.93190  -2.71270  -0.30340    62    52    63    61
 C     3.13660  -3.27630   0.69260    63    64    70    62
 C     1.98650  -3.90970   0.43550    64    63    65    72
 C     1.65360  -3.97150  -0.91660    65    67    60    64
 C    -0.55380  -4.31180  -0.45590    66    67    21    71
 C     0.39770  -4.11380  -1.32710    67    66    65     8
 C     1.00840  -0.38240   3.71670    68    57    73    58
 C     2.21960  -2.29470   2.73000    69    70    75    57
 C     3.30050  -2.55570   1.84840    70    53    63    69
 C    -0.29700  -4.16980   0.89430    71    84    72    66
 C     0.94130  -3.86690   1.39150    72    71    64    75
 C    -0.24710  -1.12190   3.66040    73    78    74    68
 C    -0.25780  -2.44590   3.06210    74    83    73    75
 C     0.99090  -2.98170   2.53550    75    69    72    74
 C    -2.36810   1.78850   3.12470    76    79    87    77
 C    -1.40120   0.98230   3.65260    77    59    76    78
 C    -1.49760  -0.41360   3.70610    78    77    81    73
 C    -3.52530   1.31940   2.72430    79    76    80    88
 C    -3.75410  -0.02250   2.83330    80    79    97    81
 C    -2.74440  -0.93260   3.25510    81    82    80    78
 C    -2.75800  -2.20060   2.65080    82    81    83    99
 C    -1.52860  -2.91420   2.54600    83    84    82    74
 C    -1.46140  -3.77700   1.44500    84    71    98    83
 C    -3.59360   2.92000   0.91670    85    88    91    86
 C    -2.35340   3.46840   1.39200    86    87    48    85
 C    -1.81330   2.87790   2.52700    87    51    76    86
 C    -4.18320   1.88330   1.66300    88    93    79    85
 C    -5.08110   0.79770  -0.19990    89    90    93    96
 C    -4.51340   1.74280  -0.99140    90    89    91    35
 C    -3.81630   2.84390  -0.47680    91    92    90    85
 C    -2.84220   3.34640  -1.27930    92    91    34    47
 C    -4.93170   0.86840   1.14900    93    89    88    97
 C    -4.66880  -1.46030   1.26830    94    97    99    95
 C    -4.82270  -1.53380  -0.10500    95    96    20    94
 C    -4.98650  -0.41780  -0.82570    96    95    89    17
 C    -4.69600  -0.27470   1.87170    97    94    80    93
 C    -2.41370  -3.80200   0.44790    98   100    21    84
 C    -3.76040  -2.39780   1.65430    99   100    94    82
 C    -3.51000  -3.12410   0.53790   100    98    99    20
