   100
C100-C1-346                                                                     
 C     2.43590  -1.58470  -3.23310     1     2     9     4
 C     3.55060  -1.20750  -2.53810     2     1     3     7
 C     3.90640  -2.09830  -1.52800     3    60     6     2
 C     1.70710  -2.73320  -2.93330     4    24     5     1
 C     1.98450  -3.56840  -1.88010     5     4     6    21
 C     3.14320  -3.20790  -1.20730     6    66     3     5
 C     3.81290   0.17980  -2.40600     7     8     2    11
 C     4.49920   0.52710  -1.22890     8    27    59     7
 C     1.58930  -0.67480  -3.80620     9     1    14    10
 C     1.75300   0.69780  -3.71350    10     9    18    11
 C     2.92270   1.15880  -2.98420    11    12     7    10
 C     2.85420   2.43880  -2.35150    12    13    26    11
 C     1.66770   3.14380  -2.51770    13    28    19    12
 C     0.36270  -1.27800  -3.92330    14    16     9    24
 C    -1.90580  -1.27120  -3.58440    15    34    16    25
 C    -0.80560  -0.56570  -4.01010    16    14    15    17
 C    -0.78630   0.84510  -3.94270    17    16    18    36
 C     0.52780   1.45000  -3.80770    18    19    10    17
 C     0.56560   2.68570  -3.20560    19    18    13    38
 C     1.10860  -4.31360   0.17840    20    94    65    21
 C     0.88790  -4.16670  -1.19250    21    20     5    22
 C    -0.46890  -3.98780  -1.62000    22    23    21    96
 C    -0.64550  -3.18310  -2.78240    23    25    24    22
 C     0.43670  -2.54980  -3.35860    24     4    23    14
 C    -1.82920  -2.52930  -2.97570    25    99    23    15
 C     3.55880   2.72210  -1.14540    26    27    30    12
 C     4.34100   1.73500  -0.60930    27     8    26    42
 C     1.17450   4.01610  -1.58190    28    29    31    13
 C     1.79220   4.17990  -0.41540    29    28    30    51
 C     2.96950   3.56110  -0.19710    30    29    40    26
 C    -0.16320   4.09630  -1.64500    31    28    38    32
 C    -0.94610   4.30420  -0.51540    32    33    31    50
 C    -2.21000   3.82790  -0.64160    33    32    52    39
 C    -3.02860  -0.64620  -3.14460    34    15    89    35
 C    -3.13700   0.73720  -3.03130    35    34    92    36
 C    -1.98530   1.50690  -3.43310    36    37    35    17
 C    -1.80960   2.75700  -2.79220    37    38    39    36
 C    -0.56250   3.30190  -2.70600    38    37    19    31
 C    -2.66480   3.12090  -1.75710    39    93    37    33
 C     3.02200   3.32760   1.15890    40    41    30    44
 C     3.74840   2.29250   1.65390    41    40    42    43
 C     4.46060   1.52950   0.76670    42    58    41    27
 C     3.19500   1.63750   2.72340    43    41    56    47
 C     1.81290   3.72450   1.71580    44    51    46    40
 C    -0.19040   3.02580   2.88660    45    46    49    54
 C     1.21920   3.05550   2.77200    46    44    47    45
 C     1.97070   1.99520   3.25180    47    74    43    46
 C    -2.08360   1.59960   3.33610    48    75    55    49
 C    -0.75270   1.87440   3.56840    49    48    73    45
 C    -0.32680   4.32000   0.76640    50    51    32    54
 C     1.05400   4.29600   0.74050    51    44    29    50
 C    -2.93490   3.42000   0.43400    52    33    85    53
 C    -2.34110   3.33050   1.69970    53    55    52    54
 C    -0.99930   3.72940   1.89110    54    53    50    45
 C    -2.87340   2.31450   2.46170    55    53    48    88
 C     3.37800   0.28580   2.92270    56    67    43    57
 C     4.15080  -0.48980   2.08070    57    56    58    62
 C     4.69000   0.19810   0.98180    58    59    42    57
 C     4.80280  -0.38960  -0.24240    59    60    58     8
 C     4.49800  -1.67270  -0.37450    60    59     3    63
 C     2.63190  -2.34370   2.65200    61    64    69    62
 C     3.77760  -1.83900   1.94200    62    57    63    61
 C     4.04060  -2.41430   0.68270    63    66    60    62
 C     1.94600  -3.39700   2.04670    64    72    65    61
 C     2.25220  -3.89520   0.80860    65    66    64    20
 C     3.26930  -3.38710   0.13930    66    65    63     6
 C     2.26770  -0.19080   3.58480    67    56    69    74
 C     0.42890  -1.71810   3.70950    68    71    69    77
 C     1.82970  -1.49640   3.48680    69    67    61    68
 C    -1.47950  -2.91780   2.79480    70    78    71    80
 C    -0.14150  -2.86370   3.08150    71    70    72    68
 C     0.62170  -3.63150   2.23730    72    64    71    94
 C     0.04840   0.74250   3.97460    73    74    77    49
 C     1.40380   0.87200   3.79670    74    47    73    67
 C    -2.63220   0.34390   3.44730    75    48    76    81
 C    -1.85190  -0.76310   3.73550    76    75    78    77
 C    -0.47020  -0.60330   3.99790    77    76    73    68
 C    -2.33210  -1.92660   3.15440    78    70    84    76
 C    -3.19560  -2.95930   1.38400    79    80    97    84
 C    -2.01230  -3.55540   1.67110    80    79    95    70
 C    -3.77320   0.28670   2.66310    81    88    83    75
 C    -4.73900  -0.78570   0.81480    82    83   100    86
 C    -4.19750  -0.88040   2.07380    83    84    82    81
 C    -3.44200  -1.98020   2.33420    84    83    78    79
 C    -3.92550   2.56730  -0.01200    85    87    52    93
 C    -4.85670   0.43740   0.16970    86    87    91    82
 C    -4.46400   1.60200   0.79010    87    85    88    86
 C    -3.91280   1.50270   2.04500    88    81    87    55
 C    -3.66040  -1.53470  -2.30530    89    90    99    34
 C    -4.45260  -1.09800  -1.33080    90    89   100    91
 C    -4.65300   0.24130  -1.18390    91    90    86    92
 C    -4.02210   1.18240  -2.00330    92    93    91    35
 C    -3.72330   2.36420  -1.37390    93    39    92    85
 C     0.09740  -4.23380   1.08210    94    20    95    72
 C    -1.21630  -4.14400   0.71220    95    94    80    96
 C    -1.57120  -4.03280  -0.66500    96    95    98    22
 C    -3.66360  -2.87440   0.08750    97    79   100    98
 C    -2.81920  -3.37760  -0.94690    98    99    97    96
 C    -2.89050  -2.65950  -2.13990    99    25    89    98
 C    -4.47360  -1.75530  -0.13820   100    90    82    97
