   100
C100-C1-328                                                                     
 C     3.88790   1.08840  -2.18980     1     2     8    60
 C     3.99870  -0.26290  -2.24440     2     1     3     7
 C     4.63350  -0.83480  -1.12750     3     4    59     2
 C     4.32230  -2.07940  -0.70720     4     5     3    32
 C     3.47220  -2.80200  -1.41880     5     4    11     6
 C     2.81990  -2.27430  -2.52560     6    14     7     5
 C     2.97940  -0.97260  -2.95250     7     6     2    22
 C     2.85160   1.72380  -2.81830     8    65     1     9
 C     1.77310   1.08570  -3.47790     9     8    22    21
 C     0.50350  -4.32010  -1.18520    10    12    15    28
 C     2.67630  -3.70960  -0.80040    11    12     5    30
 C     1.63480  -3.86550  -1.64100    12    10    11    14
 C     0.49500  -2.41920  -3.25000    13    14    19    26
 C     1.65370  -2.94560  -2.67020    14     6    12    13
 C    -0.63990  -4.00570  -1.81490    15    10    42    19
 C    -3.04560  -0.25710  -2.99120    16    27    91    17
 C    -1.93960  -1.01940  -3.41520    17    16    18    25
 C    -1.93240  -2.37170  -2.96390    18    19    46    17
 C    -0.71690  -3.04350  -2.85740    19    18    13    15
 C     0.51290   3.05660  -2.88830    20    95    64    21
 C     0.53210   1.79660  -3.51720    21    20    24     9
 C     1.81120  -0.33270  -3.54540    22     9     7    26
 C    -1.91060   1.84580  -3.13650    23    27    97    24
 C    -0.72700   1.13980  -3.63840    24    21    25    23
 C    -0.72100  -0.31660  -3.74890    25    17    26    24
 C     0.54220  -1.04410  -3.68900    26    13    25    22
 C    -3.02840   1.09960  -2.82970    27    16    23   100
 C     0.29220  -4.49450   0.16410    28    34    10    29
 C     1.25470  -4.15180   1.09250    29    28    30    37
 C     2.55740  -3.82210   0.60380    30    31    11    29
 C     3.39940  -2.96740   1.32360    31    33    32    30
 C     4.32230  -2.15280   0.65930    32     4    49    31
 C     2.86130  -2.39200   2.45690    33    47    38    31
 C    -1.04300  -4.38070   0.34680    34    28    42    35
 C    -1.62100  -3.84530   1.49590    35    34    44    36
 C    -0.68970  -3.32700   2.46250    36    37    35    40
 C     0.71680  -3.53060   2.26290    37    38    29    36
 C     1.57040  -2.63610   2.87590    38    33    37    52
 C    -2.40630  -1.71200   3.02480    39    40    70    45
 C    -1.11850  -2.16160   3.21970    40    39    51    36
 C    -2.77070  -3.61890  -1.03360    41    42    43    46
 C    -1.61370  -4.19970  -0.89500    42    41    15    34
 C    -3.49730  -3.23350   0.04570    43    41    87    44
 C    -2.91300  -3.30060   1.32220    44    45    43    35
 C    -3.30280  -2.26840   2.12590    45    44    89    39
 C    -2.97410  -2.76220  -2.08160    46    92    41    18
 C     3.21560  -1.13160   2.88170    47    48    33    53
 C     4.15640  -0.37650   2.23170    48    47    50    49
 C     4.71120  -0.90720   1.08890    49    32    48    59
 C     3.93270   0.97560   2.26620    50    48    57    56
 C    -0.19910  -1.17090   3.69720    51    52    40    54
 C     1.12430  -1.50260   3.53970    52    53    51    38
 C     2.12450  -0.57490   3.51880    53    52    47    55
 C    -0.52520   0.25180   3.81340    54    71    72    51
 C     1.86130   0.78160   3.55290    55    53    56    72
 C     2.83210   1.53240   2.90760    56    77    55    50
 C     4.27360   1.79460   1.21750    57    50    61    58
 C     4.77930   1.25600   0.04290    58    59    60    57
 C     4.97070  -0.09310  -0.00300    59    58    49     3
 C     4.29590   1.85370  -1.09170    60    63    58     1
 C     3.41710   2.87700   1.25490    61    62    57    77
 C     3.05220   3.55760   0.11860    62    61    68    63
 C     3.51400   2.96540  -1.06260    63    60    65    62
 C     1.58480   3.55680  -2.18940    64    65    69    20
 C     2.71830   2.91350  -2.16380    65    64    63     8
 C    -0.39160   4.33090   1.03780    66    78    67    82
 C     0.95110   4.12650   1.26550    67    66    76    68
 C     1.81970   4.21070   0.12170    68    62    69    67
 C     1.16090   4.28250  -1.11750    69    83    64    68
 C    -2.76720  -0.39310   3.21270    70    84    39    71
 C    -1.86210   0.63010   3.54500    71    70    54    73
 C     0.52770   1.25000   3.66460    72    55    54    75
 C    -2.17660   1.93490   3.07850    73    86    74    71
 C    -1.13540   2.86400   2.82500    74    78    73    75
 C     0.22520   2.56480   3.10930    75    74    72    76
 C     1.26770   3.27300   2.36690    76    77    67    75
 C     2.52970   2.72120   2.31080    77    56    76    61
 C    -1.38370   3.78700   1.79500    78    66    80    74
 C    -3.48010   2.91110   1.27000    79    80    86    98
 C    -2.51230   3.75590   1.00920    80    79    81    78
 C    -2.20720   4.09240  -0.27460    81    82    80    96
 C    -0.93410   4.51430  -0.22360    82    83    81    66
 C    -0.15910   4.38300  -1.27790    83    82    69    95
 C    -3.90100  -0.19180   2.45770    84    85    89    70
 C    -4.18480   1.01660   1.98590    85    84    86    93
 C    -3.36230   2.04320   2.30870    86    85    79    73
 C    -4.33090  -2.22150  -0.36410    87    43    88    92
 C    -4.76210  -1.21360   0.46580    88    87    89    94
 C    -4.21560  -1.30520   1.74600    89    84    45    88
 C    -4.55570   0.27520  -1.40580    90    91   100    94
 C    -4.03940  -0.73130  -2.15360    91    92    90    16
 C    -3.97830  -1.96100  -1.67520    92    91    46    87
 C    -4.71990   1.17390   0.72350    93    98    94    85
 C    -4.95560   0.07810  -0.07400    94    93    90    88
 C    -0.59730   3.63880  -2.35350    95    20    97    83
 C    -2.76760   3.41270  -1.37480    96    99    81    97
 C    -1.84930   3.09150  -2.43210    97    95    23    96
 C    -4.22010   2.36380   0.25180    98    79    93    99
 C    -3.82540   2.55510  -1.07820    99   100    96    98
 C    -3.97720   1.44360  -1.85990   100    99    90    27
