   100
C100-D5d-1                                                                      
 C     4.99000   0.71220  -2.17150     1    20     2     3
 C     4.20250  -0.20390  -2.81920     2     4     1    10
 C     5.79810   0.36340  -1.10120     3    19     1    67
 C     4.21630  -1.48540  -2.40760     4     2    65     5
 C     3.01470  -2.15400  -2.41840     5    74     4     8
 C    -0.60500  -0.33860  -3.44330     6    27    30     7
 C    -0.60500  -1.72250  -2.99750     7    15    12     6
 C     1.81860  -1.69670  -2.95760     8     5    12     9
 C     1.81740  -0.34090  -3.39660     9    10    27     8
 C     3.01100   0.34320  -3.22430    10    21     2     9
 C     0.60650  -3.15370  -1.40850    11    73    70    12
 C     0.60710  -2.29700  -2.58090    12     8     7    11
 C    -3.01290  -3.16300  -0.69070    13    80    98    14
 C    -1.81660  -3.10210  -1.39550    14    13    70    15
 C    -1.81940  -2.26410  -2.54840    15    16     7    14
 C    -3.01800  -1.61980  -2.81180    16    29    99    15
 C     4.98000   2.28470   0.01340    17    18    36    19
 C     4.20900   2.61670  -1.06350    18    20    17    26
 C     5.79480   1.16370   0.02640    19    35     3    17
 C     4.20470   1.83480  -2.15520    20    18     1    21
 C     3.01230   1.64790  -2.80450    21    20    10    24
 C    -0.60670   3.16180  -1.38170    22    46    43    23
 C    -0.60430   2.31680  -2.56550    23    31    28    22
 C     1.81820   2.29570  -2.52830    24    21    28    25
 C     1.81570   3.12140  -1.36710    25    26    43    24
 C     3.01170   3.16610  -0.66150    26    37    18    25
 C     0.60810   0.36880  -3.44130    27     9     6    28
 C     0.60880   1.74800  -2.98630    28    23    24    27
 C    -3.01790  -0.31300  -3.23200    29    16    94    30
 C    -1.81780   0.36870  -3.39200    30    29     6    31
 C    -1.81890   1.72240  -2.94410    31    32    23    30
 C    -3.01260   2.17560  -2.40370    32    45    95    31
 C     4.99810   0.69100   2.20280    33    52    34    35
 C     4.21260   1.81390   2.17640    34    36    33    42
 C     5.80490   0.34140   1.13480    35    19    51    33
 C     4.20150   2.60720   1.09210    36    34    17    37
 C     3.00980   3.16570   0.71060    37    36    26    40
 C    -0.60800   2.28880   2.59470    38    62    59    39
 C    -0.60510   3.14860   1.42180    39    47    44    38
 C     1.81630   3.10520   1.41200    40    37    44    41
 C     1.81560   2.26090   2.55980    41    42    59    40
 C     3.01370   1.60560   2.82300    42    53    34    41
 C     0.60610   3.37850  -0.70390    43    25    22    44
 C     0.60700   3.37130   0.74900    44    39    40    43
 C    -3.01600   2.97280  -1.28740    45    32    90    46
 C    -1.81670   3.33300  -0.68730    46    45    22    47
 C    -1.81870   3.32380   0.73860    47    48    39    46
 C    -3.01230   2.95000   1.33850    48    61    91    47
 C     4.98360  -1.86000   1.35020    49    50    68    51
 C     4.20330  -1.50260   2.41310    50    52    49    58
 C     5.80710  -0.96460   0.68530    51    35    67    49
 C     4.20710  -0.22690   2.84140    52    50    33    53
 C     3.01320   0.30440   3.25380    53    52    42    56
 C    -0.60710  -1.75660   2.99440    54    75    78    55
 C    -0.60790  -0.37700   3.45390    55    63    60    54
 C     1.81570  -0.37640   3.41440    56    53    60    57
 C     1.81500  -1.72870   2.96060    57    58    75    56
 C     3.00950  -2.18020   2.41500    58    69    50    57
 C     0.60470   1.71270   3.01190    59    41    38    60
 C     0.60490   0.33120   3.45920    60    56    55    59
 C    -3.01900   2.14350   2.44870    61    48    86    62
 C    -1.81860   1.68450   2.97630    62    61    38    63
 C    -1.82220   0.32600   3.41120    63    64    55    62
 C    -3.02230  -0.35030   3.24110    64    77    87    63
 C     5.00820  -1.86700  -1.36150    65     4    66    67
 C     4.21900  -2.75720  -0.68060    66    68    65    74
 C     5.81340  -0.96470  -0.69810    67    65    51     3
 C     4.20410  -2.75560   0.66480    68    66    49    69
 C     3.00950  -2.98370   1.30280    69    58    68    72
 C    -0.60700  -3.37230  -0.73300    70    14    11    71
 C    -0.60700  -3.38540   0.72030    71    76    79    70
 C     1.81450  -3.34660   0.70020    72    69    76    73
 C     1.81940  -3.33830  -0.72430    73    74    11    72
 C     3.01780  -2.97280  -1.31890    74     5    66    73
 C     0.60590  -2.32690   2.57530    75    57    54    76
 C     0.60600  -3.17250   1.39430    76    71    72    75
 C    -3.01870  -1.65160   2.80190    77    64    82    78
 C    -1.81870  -2.29670   2.53280    78    77    54    79
 C    -1.82170  -3.12800   1.37580    79    80    71    78
 C    -3.02000  -3.17720   0.68000    80    13    83    79
 C    -4.99260  -0.72440   2.18890    81    87    82    84
 C    -4.21450  -1.85200   2.15470    82    83    81    77
 C    -4.22280  -2.63690   1.06150    83    82    97    80
 C    -5.79260  -0.37960   1.11070    84   100    81    88
 C    -4.97750   1.84280   1.37470    85    86    91    88
 C    -4.21690   1.47200   2.44400    86    87    85    61
 C    -4.21950   0.19510   2.84670    87    86    81    64
 C    -5.77810   0.94260   0.68970    88    92    85    84
 C    -4.97930   1.86080  -1.34630    89    95    90    92
 C    -4.21200   2.75560  -0.64930    90    91    89    45
 C    -4.20900   2.74460   0.69090    91    90    85    48
 C    -5.78610   0.94390  -0.69140    92    88    96    89
 C    -4.99790  -0.70290  -2.19610    93    99    94    96
 C    -4.21670   0.22660  -2.83450    94    95    93    29
 C    -4.21050   1.49940  -2.41340    95    94    89    32
 C    -5.80510  -0.37120  -1.11870    96    92   100    93
 C    -5.00870  -2.31690  -0.01080    97    83    98   100
 C    -4.21620  -2.62180  -1.08820    98    99    97    13
 C    -4.21470  -1.82790  -2.17170    99    98    93    16
 C    -5.81450  -1.19590  -0.00730   100    97    96    84
