   100
C100-C1-173                                                                     
 C    -3.68560   0.78750  -2.48720     1     2     6    75
 C    -3.81860  -0.56770  -2.44740     2     1     3     9
 C    -4.49210  -1.04630  -1.31780     3     4     2    72
 C    -4.24120  -2.27200  -0.82760     4     3     5    22
 C    -3.33590  -3.06000  -1.44200     5     4    23    10
 C    -2.61150   1.39820  -3.11000     6    14     7     1
 C    -1.57410   0.70090  -3.70170     7     6    18     8
 C    -1.65900  -0.74640  -3.67150     8     9    12     7
 C    -2.79840  -1.35420  -3.05730     9    10     2     8
 C    -2.60810  -2.62270  -2.51440    10     5    29     9
 C     0.72400  -0.77150  -3.89210    11    12    30    19
 C    -0.42750  -1.49510  -3.71070    12    11    28     8
 C    -1.22190   3.31010  -2.49130    13    14    77    17
 C    -2.44260   2.64050  -2.53590    14    74     6    13
 C     1.32740   3.84810  -1.58160    15    78    82    16
 C     1.23120   3.03800  -2.71740    16    15    98    17
 C    -0.11170   2.69970  -3.15180    17    13    18    16
 C    -0.33260   1.40360  -3.76250    18    19     7    17
 C     0.77970   0.61740  -3.92460    19    99    18    11
 C    -3.47810  -2.98750   1.25060    20    22    21    38
 C    -2.62980  -3.84870   0.63360    21    23    25    20
 C    -4.31120  -2.21950   0.53190    22    20    37     4
 C    -2.54760  -3.88310  -0.71160    23    21    24     5
 C    -1.34920  -4.03210  -1.32230    24    23    27    29
 C    -1.50340  -3.96860   1.37360    25    21    26    39
 C    -0.27150  -4.27320   0.81050    26    25    47    27
 C    -0.17740  -4.29810  -0.63770    27    24    33    26
 C    -0.24900  -2.76350  -3.05700    28    29    12    32
 C    -1.38340  -3.26310  -2.47570    29    28    10    24
 C     1.96260  -1.23840  -3.52510    30    92    11    31
 C     2.17910  -2.42120  -2.81680    31    30    95    32
 C     1.02050  -3.19310  -2.52360    32    31    28    33
 C     1.02320  -3.95680  -1.28950    33    34    27    32
 C     2.13390  -3.83600  -0.47370    34    96    33    46
 C    -4.04730  -0.39170   2.08140    35    37    51    36
 C    -3.10510  -1.21160   2.82950    36    38    42    35
 C    -4.59960  -0.95300   0.91660    37    22    72    35
 C    -2.86870  -2.50010   2.36360    38    20    39    36
 C    -1.65390  -3.14280   2.48870    39    40    38    25
 C    -0.58200  -2.61060   3.16060    40    39    48    41
 C    -0.75210  -1.29670   3.73840    41    42    40    45
 C    -2.01600  -0.63240   3.54410    42    43    36    41
 C    -1.99040   0.74470   3.56390    43    42    50    66
 C     1.65000  -1.09000   3.66860    44    49    45    67
 C     0.43580  -0.49720   3.94750    45    44    65    41
 C     2.04210  -3.83210   0.91150    46    88    34    47
 C     0.83210  -3.92520   1.58640    47    46    26    48
 C     0.68220  -3.10760   2.77140    48    49    40    47
 C     1.77530  -2.34550   3.12110    49    89    44    48
 C    -2.90870   1.52540   2.88890    50    53    43    51
 C    -3.92510   1.01370   2.07750    51    50    35    52
 C    -4.27100   1.79860   0.91660    52    55    71    51
 C    -2.29640   2.72150   2.66480    53    54    50    59
 C    -2.63990   3.45520   1.60980    54    53    55    57
 C    -3.58130   3.00570   0.74340    55    54    73    52
 C     0.55820   4.37500   0.43890    56    64    58    78
 C    -1.67040   4.17010   0.97380    57    54    76    58
 C    -0.36760   4.20460   1.43540    58    56    57    61
 C    -1.01050   2.69840   3.12930    59    53    66    61
 C     1.34460   2.95620   2.73160    60    61    63    69
 C     0.02140   3.44530   2.57380    61    59    60    58
 C     3.41960   2.57890   1.52830    62    70    63    80
 C     2.29170   3.33140   1.73060    63    62    64    60
 C     1.84110   3.98050   0.58610    64    56    63    82
 C     0.42780   0.93180   3.88730    65    66    45    69
 C    -0.81800   1.47960   3.71910    66    59    65    43
 C     2.78670  -0.37330   3.33780    67    68    44    84
 C     2.77250   1.00040   3.19100    68    67    70    69
 C     1.57190   1.70450   3.44580    69    68    65    60
 C     3.69550   1.45930   2.26270    70    62    68    86
 C    -4.64500   1.12800  -0.27010    71    72    75    52
 C    -4.81910  -0.21560  -0.23810    72    71    37     3
 C    -3.17670   3.48270  -0.47690    73    74    76    55
 C    -3.40920   2.75210  -1.56340    74    73    75    14
 C    -4.14030   1.62430  -1.48040    75    74     1    71
 C    -2.00540   4.16710  -0.36750    76    73    57    77
 C    -1.03370   4.14070  -1.35620    77    78    76    13
 C     0.23710   4.32510  -0.91540    78    77    15    56
 C     4.69940   1.24640   0.30360    79    83    80    86
 C     4.02020   2.42720   0.27960    80    79    62    81
 C     3.44400   2.93070  -0.88590    81    82    80    97
 C     2.36700   3.73250  -0.67870    82    81    15    64
 C     4.82070   0.52650  -0.82780    83    79   100    90
 C     3.62270  -1.20150   2.59490    84    89    85    67
 C     4.48960  -0.74100   1.62040    85    86    84    91
 C     4.51810   0.63080   1.51230    86    79    85    70
 C     3.88600  -2.68700   0.34630    87    88    96    91
 C     3.10630  -3.12390   1.37190    88    89    46    87
 C     2.97240  -2.38680   2.47870    89    88    84    49
 C     4.77830  -0.84920  -0.76110    90    83    91    94
 C     4.62890  -1.51640   0.43870    91    90    87    85
 C     2.77470  -0.14390  -3.40610    92    93    99    30
 C     3.85300  -0.15510  -2.62910    93    92   100    94
 C     4.14710  -1.28410  -1.91900    94    93    90    95
 C     3.32970  -2.41340  -1.98330    95    96    94    31
 C     3.26230  -3.12280  -0.81430    96    95    34    87
 C     3.49120   2.16450  -2.06670    97   100    81    98
 C     2.34620   2.19330  -2.93720    98    99    16    97
 C     2.04960   0.99990  -3.58410    99    92    19    98
 C     4.22680   0.97670  -1.97650   100    93    83    97
