   100
C100-C2v-94                                                                     
 C     2.99810  -3.01740   1.44660     1     2    65     4
 C     4.03810  -2.47480   0.70400     2     3     1    43
 C     4.71190  -1.35020   1.09640     3     6    15     2
 C     2.52140  -2.27280   2.59860     4     5     9     1
 C     3.15940  -1.08330   2.85640     5     6     4    23
 C     4.25270  -0.65550   2.16160     6     3    16     5
 C    -0.90790  -3.39880   2.44420     7     8    11    75
 C     0.45730  -3.36960   2.45150     8     7     9    68
 C     1.18030  -2.36090   3.04360     9     8     4    12
 C    -2.93100  -2.30510   2.45500    10    95    11    76
 C    -1.65920  -2.38280   2.99880    11     7    10    21
 C     0.43640  -1.22840   3.59340    12    22    21     9
 C     5.16700   0.68720  -0.00720    13    32    14    15
 C     4.71530   1.36760   1.08720    14    16    13    18
 C     5.16570  -0.68070  -0.00270    15    31     3    13
 C     4.25200   0.69660   2.16480    16    14     6    17
 C     3.16500   1.13140   2.85880    17    16    20    23
 C     4.03880   2.48740   0.68510    18    14    19    33
 C     2.99790   3.03860   1.42520    19    18    38    20
 C     2.51910   2.31460   2.59180    20    17    25    19
 C    -1.00730  -1.22960   3.54710    21    11    12    26
 C     1.12460   0.02320   3.66760    22    23    12    28
 C     2.47580   0.02400   3.33580    23     5    17    22
 C     0.45610   3.40380   2.43520    24   100    25    37
 C     1.17990   2.40110   3.03640    25    24    20    28
 C    -1.74200   0.01980   3.54390    26    96    21    27
 C    -1.01160   1.27430   3.54600    27    99    28    26
 C     0.43170   1.27350   3.59300    28    22    27    25
 C     4.25550  -0.68520  -2.14870    29    31    30    44
 C     4.25520   0.67430  -2.15300    30    32    29    34
 C     4.71670  -1.37660  -1.08000    31    29    15    43
 C     4.71740   1.37430  -1.09030    32    30    13    33
 C     4.04630   2.49580  -0.71020    33    32    36    18
 C     3.15450   1.09630  -2.84440    34    30    35    45
 C     2.51880   2.29240  -2.58570    35    34    58    36
 C     3.00040   3.04050  -1.43650    36    33    39    35
 C     0.90860   4.10250   1.32380    37    91    38    24
 C     2.11300   3.84420   0.70970    38    37    19    39
 C     2.10850   3.84300  -0.73580    39    40    36    38
 C     0.89940   4.08630  -1.34340    40    92    39    57
 C     2.99930  -3.04140  -1.41660    41    43    64    42
 C     2.51700  -2.30130  -2.57070    42    44    48    41
 C     4.04510  -2.49480  -0.69080    43    31    41     2
 C     3.15520  -1.11130  -2.83780    44    29    42    45
 C     2.46580  -0.00980  -3.31760    45    44    34    46
 C     1.11320  -0.01070  -3.64600    46    45    59    47
 C     0.42960  -1.26510  -3.56070    47    46    52    48
 C     1.17380  -2.39430  -3.00580    48    49    42    47
 C     0.45040  -3.39770  -2.40880    49    54    48    63
 C    -1.01420   1.23680  -3.52240    50    61    59    51
 C    -1.74680  -0.01280  -3.51140    51    56    50    52
 C    -1.01400  -1.26490  -3.50960    52    53    47    51
 C    -1.66560  -2.41500  -2.95580    53    54    72    52
 C    -0.91350  -3.42610  -2.39980    54    49    53    69
 C    -3.63110   1.13920  -2.42580    55    62    56    83
 C    -3.08660  -0.01320  -2.96920    56    73    55    51
 C     0.44470   3.37660  -2.44480    57    60    58    40
 C     1.17680   2.37250  -3.03150    58    57    35    59
 C     0.42960   1.24200  -3.57420    59    46    50    58
 C    -0.91660   3.40550  -2.42940    60    57    61    87
 C    -1.67160   2.38810  -2.97460    61    60    62    50
 C    -2.93830   2.30790  -2.42780    62    55    61    89
 C     0.90620  -4.10220  -1.30410    63    66    64    49
 C     2.11520  -3.84290  -0.69790    64    63    41    65
 C     2.11270  -3.83380   0.74770    65    68     1    64
 C    -0.20620  -4.50580  -0.64100    66    67    69    63
 C    -0.20210  -4.49890   0.70200    67    66    68    75
 C     0.90550  -4.08810   1.35260    68    67    65     8
 C    -1.33640  -4.16890  -1.30650    69    66    70    54
 C    -2.53360  -3.95450  -0.67490    70    69    71    74
 C    -3.36130  -3.07100  -1.32320    71    77    70    72
 C    -2.93710  -2.32000  -2.41840    72    73    53    71
 C    -3.63610  -1.15820  -2.42260    73    72    56    85
 C    -2.53860  -3.94920   0.73930    74    76    75    70
 C    -1.33540  -4.15770   1.36060    75    67    74     7
 C    -3.36900  -3.06260   1.36730    76    78    74    10
 C    -4.28200  -2.31980  -0.65550    77    78    85    71
 C    -4.28040  -2.30710   0.70500    78    76    80    77
 C    -4.88120   0.00540   0.71990    79    80    81    84
 C    -4.49510  -1.14360   1.37160    80    78    79    95
 C    -4.49080   1.15890   1.36170    81    86    79    97
 C    -4.27970   2.31420  -0.67070    82    86    83    89
 C    -4.51080   1.14990  -1.33740    83    82    84    55
 C    -4.89240  -0.00630  -0.70230    84    85    83    79
 C    -4.51440  -1.16240  -1.33410    85    77    84    73
 C    -4.26820   2.32160   0.68940    86    93    82    81
 C    -1.33760   4.15740  -1.34000    87    92    88    60
 C    -2.53380   3.95220  -0.70390    88    87    89    94
 C    -3.36730   3.07000  -1.34160    89    82    88    62
 C    -1.32750   4.16270   1.33700    90    91    94   100
 C    -0.20370   4.50490   0.66210    91    92    90    37
 C    -0.20710   4.49900  -0.67830    92    91    87    40
 C    -3.36120   3.07770   1.35990    93    86    94    98
 C    -2.53300   3.95410   0.71150    94    93    90    88
 C    -3.62300  -1.13350   2.46530    95    10    96    80
 C    -3.08220   0.01830   3.00430    96    97    95    26
 C    -3.62340   1.16680   2.46010    97    98    96    81
 C    -2.93570   2.33650   2.46080    98    97    99    93
 C    -1.66490   2.42700   2.99780    99   100    98    27
 C    -0.90780   3.43180   2.43990   100    24    99    90
