   100
C100-C1-379                                                                     
 C    -2.18150  -2.17490   3.01050     1     6     2    58
 C    -2.70510  -2.95350   2.00190     2     1     3     9
 C    -3.79020  -2.35520   1.37040     3     4    57     2
 C    -3.98630  -2.52390   0.02440     4     5    19     3
 C    -3.15110  -3.27370  -0.67310     5     4    10    20
 C    -0.86390  -2.25660   3.37040     6     1     7    75
 C     0.03560  -3.14130   2.78670     7     6    15     8
 C    -0.45150  -3.94250   1.67910     8     9    12     7
 C    -1.82600  -3.80600   1.29890     9    10     2     8
 C    -2.12800  -3.95040  -0.06560    10    28     5     9
 C     1.82390  -3.99530   0.89350    11    16    12    91
 C     0.49620  -4.32160   0.67290    12    11    27     8
 C     2.99140  -0.96160   3.12570    13    76    97    14
 C     1.77420  -1.50800   3.52980    14    13    74    15
 C     1.39540  -2.76840   2.92610    15    16     7    14
 C     2.27020  -3.28650   1.97420    16    11    98    15
 C    -4.18140  -0.95160  -1.80990    17    32    19    18
 C    -3.22820  -1.73640  -2.54600    18    20    25    17
 C    -4.53540  -1.40490  -0.51900    19     4    30    17
 C    -2.78810  -2.91130  -1.94540    20    21     5    18
 C    -1.57130  -3.46940  -2.16880    21    20    23    28
 C     0.64040  -3.24340  -2.76810    22    23    41    29
 C    -0.66290  -2.90870  -3.04660    23    22    21    24
 C    -0.97050  -1.68360  -3.68590    24    23    25    43
 C    -2.28320  -1.11970  -3.43020    25    26    18    24
 C    -2.40710   0.25740  -3.53020    26    45    31    25
 C     0.10580  -4.38880  -0.69220    27    28    29    12
 C    -1.18300  -4.16150  -1.01590    28    27    10    21
 C     1.01400  -3.99180  -1.66260    29    92    22    27
 C    -4.79600  -0.57800   0.54130    30    34    19    57
 C    -3.31260   1.01440  -2.81790    31    32    26    36
 C    -4.21220   0.44990  -1.95030    32    31    33    17
 C    -4.53370   1.26140  -0.86400    33    34    38    32
 C    -4.79860   0.74170   0.37790    34    30    48    33
 C    -1.55550   2.30370  -3.24640    35    36    40    45
 C    -2.75820   2.27370  -2.62360    36    35    37    31
 C    -3.00320   3.05910  -1.52300    37    36    38    50
 C    -3.93780   2.49450  -0.66130    38    49    33    37
 C     0.70120   2.69360  -3.22770    39    65    40    46
 C    -0.53180   3.14200  -2.84170    40    39    35    52
 C     1.70550  -2.43700  -3.10650    41    42    22    95
 C     1.52770  -1.21600  -3.71910    42    41    87    43
 C     0.16050  -0.82530  -4.02620    43    44    42    24
 C    -0.08950   0.56530  -4.09640    44    45    46    43
 C    -1.34050   1.05730  -3.83510    45    26    44    35
 C     0.92270   1.45490  -3.84340    46    88    44    39
 C    -2.84440   3.36130   1.18540    47    49    53    51
 C    -4.30750   1.56220   1.35630    48    49    34    55
 C    -3.84680   2.65140   0.69280    49    47    48    38
 C    -1.94120   3.85920  -1.01520    50    51    37    52
 C    -1.93730   3.99200   0.37350    51    69    47    50
 C    -0.66250   3.93520  -1.66530    52    40    50    67
 C    -2.24000   2.98300   2.35380    53    59    47    54
 C    -2.58360   1.82240   3.04960    54    53    63    55
 C    -3.69630   1.07710   2.53130    55    56    48    54
 C    -3.71610  -0.32050   2.68310    56    58    57    55
 C    -4.29330  -1.11670   1.69810    57    30     3    56
 C    -2.65170  -0.90560   3.32530    58    56    64     1
 C    -0.98690   3.49990   2.32160    59    53    61    69
 C     1.27930   3.26840   2.52520    60    71    61    70
 C     0.04670   2.94390   3.03490    61    60    59    62
 C    -0.15600   1.72280   3.74750    62    61    63    73
 C    -1.49250   1.18660   3.72570    63    64    54    62
 C    -1.59460  -0.19320   3.83940    64    58    75    63
 C     1.83440   3.04670  -2.56510    65    39    81    66
 C     1.83750   3.79610  -1.38900    66    65    84    67
 C     0.54950   4.21780  -0.90680    67    68    66    52
 C     0.42140   4.31540   0.51090    68    69    70    67
 C    -0.80070   4.15510   1.09400    69    51    68    59
 C     1.47710   3.94220   1.31650    70    85    68    60
 C     2.36930   2.49680   2.76030    71    60    72    77
 C     2.26520   1.29770   3.44710    72    76    71    73
 C     0.99710   0.85010   3.91450    73    72    74    62
 C     0.79330  -0.57820   3.96980    74    75    14    73
 C    -0.50140  -1.02830   3.91720    75    74    64     6
 C     3.23360   0.38160   3.07610    76    13    72    80
 C     3.28620   2.72600   1.74440    77    79    85    71
 C     4.48300   1.68790   0.03230    78    79    83    99
 C     4.19460   1.77530   1.37470    79    80    77    78
 C     4.17850   0.60620   2.07320    80    79    96    76
 C     2.75160   2.06300  -2.84100    81    82    88    65
 C     3.74880   1.81300  -2.00560    82    81    83    89
 C     3.86390   2.53610  -0.86320    83    82    78    84
 C     2.92440   3.51140  -0.51420    84    85    83    66
 C     2.69270   3.58430   0.83650    85    70    84    77
 C     3.66350  -0.55760  -2.55100    86    89    94    87
 C     2.57080  -0.27180  -3.46050    87    88    42    86
 C     2.19150   1.05810  -3.56730    88    46    81    87
 C     4.21640   0.53350  -1.85780    89    82    99    86
 C     3.68240  -2.87090   0.27480    90    91    98    93
 C     2.71490  -3.72330  -0.13190    91    92    90    11
 C     2.28760  -3.66830  -1.38890    92    91    29    95
 C     4.27600  -1.88830  -0.54620    93    90   100    94
 C     3.74040  -1.80050  -1.88540    94    95    86    93
 C     2.75780  -2.71390  -2.24480    95    92    41    94
 C     4.47890  -0.59950   1.48580    96    97    80   100
 C     3.80240  -1.54470   2.18590    97    98    96    13
 C     3.43540  -2.66960   1.60750    98    97    16    90
 C     4.72380   0.45920  -0.58000    99   100    89    78
 C     4.73720  -0.72640   0.11020   100    99    96    93
