   100
C100-C2-326                                                                     
 C     0.70690  -4.36750  -0.57480     1     7    64     2
 C     1.65200  -4.12790   0.40440     2     1     3    10
 C     2.91130  -3.59580  -0.01310     3     4    65     2
 C     3.68210  -2.80850   0.85240     4     6     5     3
 C     4.50660  -1.80280   0.33170     5    52    19     4
 C     3.11940  -2.51420   2.07700     6    17     4    11
 C    -0.63020  -4.39420  -0.36240     7     1    67     8
 C    -1.23840  -4.15170   0.86200     8     7    15     9
 C    -0.34030  -3.76650   1.91700     9     8    10    13
 C     1.07980  -3.79870   1.67720    10    11     2     9
 C     1.86740  -2.96480   2.45220    11     6    10    28
 C    -2.19380  -2.45130   2.78040    12    29    14    13
 C    -0.86200  -2.82350   2.89200    13    12    27     9
 C    -3.04230  -2.89450   1.78790    14    15    12   100
 C    -2.57250  -3.69780   0.78560    15    14    16     8
 C    -3.15800  -3.40540  -0.45560    16    69    97    15
 C     3.35630  -1.32100   2.72390    17    18    21     6
 C     4.19080  -0.36110   2.21090    18    17    20    19
 C     4.76650  -0.61900   0.98960    19    18     5    35
 C     3.81710   0.93560   2.46860    20    33    18    24
 C     2.23050  -1.01790   3.45670    21    28    17    23
 C     0.47550   0.56410   3.91210    22    23    26    31
 C     1.83710   0.28340   3.71400    23    24    21    22
 C     2.67500   1.24810   3.18990    24    43    23    20
 C    -1.32450   2.04340   3.31630    25    32    26    44
 C     0.02280   1.89330   3.53670    26    25    42    22
 C    -0.01360  -1.87580   3.55140    27    28    13    31
 C     1.32870  -2.03720   3.32900    28    21    27    11
 C    -2.67010  -1.23370   3.21150    29    12    30    93
 C    -1.82860  -0.26470   3.72530    30    29    32    31
 C    -0.46930  -0.54660   3.91910    31    30    27    22
 C    -2.23230   1.03010   3.45760    32    25    96    30
 C     4.02850   1.95030   1.57300    33    20    37    34
 C     4.58380   1.68550   0.33110    34    36    35    33
 C     4.92600   0.38780   0.05210    35    34    19    51
 C     4.06440   2.40970  -0.70090    36    34    39    49
 C     3.04550   2.90030   1.76580    37    38    43    33
 C     2.57710   3.69890   0.76080    38    37    39    47
 C     3.14540   3.40140  -0.48680    39    41    36    38
 C     1.21570   3.99360  -1.57560    40    41    63    48
 C     2.41430   3.48180  -1.61700    41    40    39    54
 C     0.87190   2.84140   2.87810    42    43    26    46
 C     2.20140   2.46940   2.76700    43    24    37    42
 C    -1.86330   2.97880   2.44400    44    87    45    25
 C    -1.06980   3.80910   1.66730    45    44    91    46
 C     0.35240   3.77680   1.89860    46    47    45    42
 C     1.24350   4.15710   0.83220    47    48    38    46
 C     0.62560   4.39390  -0.38890    48    92    40    47
 C     3.78160   1.82930  -1.94260    49    50    54    36
 C     4.02680   0.52120  -2.21690    50    49    51    58
 C     4.69500  -0.17260  -1.19460    51    52    35    50
 C     4.50780  -1.49620  -1.00330    52    53    51     5
 C     3.72080  -2.17230  -1.82280    53    52    65    59
 C     2.71170   2.46830  -2.49100    54    49    41    56
 C     0.45510   2.45840  -3.31360    55    56    61    63
 C     1.73240   1.85830  -3.30860    56    55    54    57
 C     1.87430   0.46810  -3.58400    57    56    58    62
 C     3.07990  -0.16090  -3.05270    58    59    50    57
 C     3.01870  -1.52350  -2.83640    59    72    58    53
 C    -1.91080   2.22970  -3.09530    60    73    86    61
 C    -0.71390   1.70810  -3.60390    61    60    55    70
 C     0.65550  -0.32320  -3.85140    62    71    70    57
 C     0.27900   3.57140  -2.44890    63    84    40    55
 C     0.88130  -3.93550  -1.87400    64    66    68     1
 C     2.99980  -3.22940  -1.37820    65    66    53     3
 C     1.97000  -3.32750  -2.23890    66    64    65    72
 C    -1.21770  -4.00040  -1.54970    67    69    68     7
 C    -0.28960  -3.58730  -2.43530    68    64    67    77
 C    -2.41680  -3.48680  -1.58420    69    67    16    78
 C    -0.66580   0.29760  -3.84960    70    61    62    75
 C     0.70820  -1.73440  -3.60040    71    72    77    62
 C     1.90820  -2.25450  -3.10290    72    59    66    71
 C    -3.02450   1.50220  -2.81890    73    60    74    79
 C    -3.08390   0.14050  -3.03470    74    73    82    75
 C    -1.88200  -0.48920  -3.56890    75    76    74    70
 C    -1.74220  -1.87710  -3.28660    76    77    78    75
 C    -0.46740  -2.47670  -3.30120    77    76    68    71
 C    -2.72040  -2.47500  -2.45760    78    83    69    76
 C    -3.72550   2.14890  -1.80860    79    80    85    73
 C    -4.50060   1.47810  -0.97340    80    79    81    88
 C    -4.69130   0.15180  -1.16310    81    80    98    82
 C    -4.02400  -0.53860  -2.19230    82    83    81    74
 C    -3.79010  -1.84440  -1.90530    83    82    78    97
 C    -0.88540   3.92340  -1.88170    84    86    63    92
 C    -3.00260   3.21100  -1.37500    85    86    79    90
 C    -1.97610   3.30890  -2.23550    86    84    85    60
 C    -3.11890   2.52760   2.07730    87    89    96    44
 C    -4.51150   1.79470   0.35730    88    80    94    89
 C    -3.68260   2.81230   0.84840    89    87    90    88
 C    -2.90570   3.59440  -0.01550    90    89    85    91
 C    -1.64580   4.13220   0.39400    91    92    90    45
 C    -0.71020   4.37020  -0.59080    92    48    84    91
 C    -3.81840  -0.93580   2.49320    93   100    95    29
 C    -4.77740   0.61780   1.01870    94    88    95    98
 C    -4.19040   0.36480   2.23760    95    96    94    93
 C    -3.36270   1.33550   2.73350    96    95    32    87
 C    -4.08660  -2.42380  -0.66560    97    99    16    83
 C    -4.94160  -0.39960   0.08550    98    99    81    94
 C    -4.60330  -1.69570   0.36730    99    97    98   100
 C    -4.04150  -1.95320   1.60180   100    93    99    14
