   100
C100-C1-169                                                                     
 C     2.59070  -2.33030   2.57480     1     2    58     4
 C     3.72400  -1.59450   2.24320     2     3    56     1
 C     4.47360  -1.81120   1.11960     3     6    24     2
 C     2.18580  -3.38660   1.66620     4     5     8     1
 C     2.94420  -3.48860   0.50230     5     6    11     4
 C     4.04580  -2.73280   0.24250     6     3     5    25
 C    -0.00060  -3.28550   2.51540     7    13     8    59
 C     0.84160  -3.81430   1.57720     8     7     4     9
 C     0.20540  -4.22470   0.34520     9    10     8    15
 C     1.03170  -4.10910  -0.80090    10    11    12     9
 C     2.35010  -3.77520  -0.70420    11    10     5    26
 C     0.46060  -3.70740  -1.98650    12    18    10    28
 C    -1.35630  -3.26830   2.38530    13     7    75    14
 C    -2.06620  -3.69390   1.26700    14    13    20    15
 C    -1.23430  -4.12170   0.18680    15    17    14     9
 C    -2.97310  -3.21220  -1.26850    16    19    17    94
 C    -1.75280  -3.83450  -1.11100    17    18    16    15
 C    -0.86300  -3.56100  -2.12420    18    12    17    96
 C    -3.78410  -2.87700  -0.21090    19    16    20   100
 C    -3.33970  -3.08520   1.07580    20    19    21    14
 C    -3.78950  -2.10020   1.95630    21    76    98    20
 C     5.04850  -0.37810  -0.64710    22    31    23    24
 C     4.53650  -1.27730  -1.53490    23    25    22    39
 C     5.01570  -0.64020   0.69670    24     3    47    22
 C     4.08690  -2.46830  -1.09380    25    26    23     6
 C     3.03620  -3.05370  -1.68320    26    25    27    11
 C     2.36990  -2.44840  -2.74500    27    28    26    38
 C     1.09210  -2.84560  -2.87840    28    27    41    12
 C     3.68240   2.87210  -0.70680    29    48    30    34
 C     4.52880   1.90760  -0.22430    30    29    31    46
 C     4.73520   0.86380  -1.10420    31    22    30    32
 C     3.97920   0.71100  -2.28200    32    39    33    31
 C     3.01920   1.61420  -2.69720    33    34    32    44
 C     2.97200   2.74190  -1.90150    34    36    33    29
 C     0.72570   3.20060  -2.54050    35    36    37    45
 C     1.84760   3.48920  -1.81050    36    34    35    51
 C    -0.41270   3.73150  -1.98220    37    92    35    53
 C     2.71410  -1.13540  -3.16470    38    39    27    43
 C     3.84160  -0.62030  -2.53000    39    32    23    38
 C    -0.67710   1.48750  -3.62100    40    91    88    45
 C     0.13200  -2.07650  -3.46640    41    28    96    42
 C     0.34740  -0.73810  -3.84520    42    41    88    43
 C     1.67880  -0.23310  -3.64680    43    42    44    38
 C     1.83360   1.18510  -3.40540    44    33    43    45
 C     0.64870   2.01820  -3.36150    45    35    44    40
 C     4.47340   1.63320   1.17320    46    47    50    30
 C     4.66000   0.32990   1.57850    47    24    46    56
 C     2.89910   3.63550   0.09730    48    51    49    29
 C     2.81410   3.34140   1.40810    49    48    50    70
 C     3.54540   2.33050   1.92200    50    49    46    54
 C     1.80420   4.06430  -0.54200    51    48    52    36
 C     0.61970   4.33090   0.09790    52    53    51    69
 C    -0.46520   4.26540  -0.69360    53    71    52    37
 C     2.75050   1.75380   2.90290    54    55    60    50
 C     2.83630   0.42160   3.22450    55    54    56    57
 C     3.84700  -0.25740   2.55890    56     2    55    47
 C     1.67250  -0.24210   3.66370    57    55    58    63
 C     1.60880  -1.65630   3.35310    58    59     1    57
 C     0.36990  -2.22030   3.34310    59    68    58     7
 C     1.55640   2.44700   2.97740    60    70    54    62
 C    -0.85670   2.54550   3.02000    61    65    62    73
 C     0.36980   1.90730   3.44980    62    60    63    61
 C     0.42780   0.51930   3.85360    63    67    62    57
 C    -3.16790   2.15500   2.34680    64    74    79    65
 C    -2.07050   1.81200   3.16780    65    64    66    61
 C    -2.05250   0.46830   3.63230    66    77    65    67
 C    -0.80730  -0.16290   3.90840    67    68    63    66
 C    -0.76300  -1.54320   3.67460    68    75    59    67
 C     0.46660   3.98380   1.47500    69    70    73    52
 C     1.60460   3.45840   2.04500    70    49    60    69
 C    -1.70250   4.08240  -0.20330    71    53    83    72
 C    -1.92300   3.77540   1.14030    72    74    71    73
 C    -0.79890   3.59610   1.99280    73    69    72    61
 C    -3.08070   3.07400   1.34150    74    64    72    86
 C    -1.80990  -2.25180   3.17490    75    76    68    13
 C    -2.97520  -1.67950   2.96940    76    75    77    21
 C    -3.12710  -0.35340   3.21810    77    76    80    66
 C    -4.62280   1.55840   0.72280    78    79    86    82
 C    -4.16940   1.27770   1.98150    79    80    78    64
 C    -4.15110   0.02250   2.40720    80    79    77    98
 C    -4.61750   0.78640  -1.48530    81    97    84    82
 C    -5.01730   0.54450  -0.16180    82    78    81    99
 C    -2.48350   3.58110  -1.22430    83    85    71    92
 C    -3.92790   1.91300  -1.87060    84    85    81    90
 C    -3.62580   2.90290  -0.98210    85    83    84    86
 C    -3.95860   2.69180   0.32670    86    85    78    74
 C    -2.12800  -0.54210  -3.59060    87    89    95    88
 C    -0.83860   0.07370  -3.86690    88    42    40    87
 C    -3.18410   0.23910  -3.12900    89    90    97    87
 C    -3.02770   1.56410  -2.88870    90    89    91    84
 C    -1.82260   2.19920  -3.11430    91    92    90    40
 C    -1.63850   3.28240  -2.28350    92    37    91    83
 C    -4.19400  -1.47970  -1.85900    93    97    94   100
 C    -3.21650  -2.30500  -2.29460    94    93    16    95
 C    -2.21860  -1.89080  -3.17430    95    96    94    87
 C    -1.07810  -2.58950  -3.09470    96    95    41    18
 C    -4.19560  -0.21810  -2.30280    97    93    81    89
 C    -4.56550  -1.01540   1.59960    98    80    21    99
 C    -4.98620  -0.79570   0.29660    99    98   100    82
 C    -4.57420  -1.78920  -0.58240   100    93    99    19
