   100
C100-C2v-295                                                                    
 C    -3.22610  -3.10940  -1.32130     1    61     2     4
 C    -4.17320  -2.51770  -0.47230     2     3    46     1
 C    -4.78430  -1.35350  -0.73790     3     2     6    23
 C    -2.78100  -2.31280  -2.44150     4     5     9     1
 C    -3.41360  -1.10430  -2.63400     5     6     4    14
 C    -4.45220  -0.66200  -1.85430     6    24     3     5
 C     0.68860  -3.39950  -2.36550     7     8    10    73
 C    -0.68210  -3.39920  -2.36120     8     7     9    60
 C    -1.44460  -2.39020  -2.92020     9     8     4    12
 C     1.44510  -2.38650  -2.92650    10     7    19    11
 C     0.71940  -1.24440  -3.46690    11    16    12    10
 C    -0.72520  -1.24600  -3.46530    12    13    11     9
 C    -1.41800   0.01450  -3.51830    13    14    12    34
 C    -2.76030   0.01640  -3.13150    14    25     5    13
 C     2.74800   0.01470  -3.13230    15    20    92    16
 C     1.40440   0.01940  -3.51970    16    15    33    11
 C     4.18760  -2.50880  -0.48740    17    98    78    18
 C     3.23730  -3.10280  -1.33350    18    75    17    19
 C     2.78460  -2.30630  -2.45410    19    20    10    18
 C     3.41990  -1.09800  -2.64430    20    99    19    15
 C    -4.99030   0.65760   0.42060    21    23    36    22
 C    -4.80810   1.35850  -0.74800    22    26    24    21
 C    -4.98160  -0.66670   0.43340    23    21    45     3
 C    -4.46080   0.68250  -1.86480    24     6    22    25
 C    -3.43010   1.13150  -2.64370    25    24    28    14
 C    -4.19250   2.51630  -0.46500    26    22    37    27
 C    -3.24580   3.11670  -1.31170    27    40    26    28
 C    -2.79410   2.33740  -2.44480    28    25    32    27
 C    -0.69370   3.42220  -2.35140    29    30    32    39
 C     0.67610   3.42280  -2.35140    30    29    31    88
 C     1.43830   2.41670  -2.91750    31    30    93    33
 C    -1.45610   2.41610  -2.91960    32    29    28    34
 C     0.71350   1.27910  -3.46650    33    16    34    31
 C    -0.72830   1.27780  -3.46720    34    13    33    32
 C    -3.05810   3.19460   1.45100    35    37    38    41
 C    -4.38180   1.32120   1.44660    36    37    21    43
 C    -4.02690   2.51240   0.90790    37    35    36    26
 C    -2.30290   4.02560   0.70270    38    35    58    40
 C    -1.12850   4.18330  -1.27850    39    40    56    29
 C    -2.34340   3.97920  -0.69940    40    39    27    38
 C    -2.31980   2.67040   2.48880    41    50    35    42
 C    -2.47700   1.37460   2.98780    42    41    43    51
 C    -3.61450   0.68200   2.47080    43    44    42    36
 C    -3.61360  -0.71610   2.46590    44    43    45    47
 C    -4.37770  -1.35330   1.44100    45    46    23    44
 C    -4.02320  -2.54580   0.90300    46    49    45     2
 C    -2.47260  -1.40740   2.97950    47    48    44    52
 C    -2.31370  -2.70300   2.47570    48    68    49    47
 C    -3.05460  -3.23090   1.43790    49    46    62    48
 C    -1.14500   3.32540   2.46420    50    41    54    58
 C    -1.27750   0.70320   3.47280    51    52    42    55
 C    -1.27320  -0.73390   3.47190    52    51    47    71
 C     1.13760   3.32940   2.46220    53    80    54    59
 C    -0.00240   2.76370   2.98020    54    50    53    55
 C     0.00300   1.41510   3.47680    55    54    69    51
 C    -0.00800   4.56320  -0.58700    56    39    88    57
 C    -0.00220   4.59230   0.79490    57    59    58    56
 C    -1.14900   4.22360   1.39020    58    57    38    50
 C     1.14520   4.22620   1.38700    59    57    90    53
 C    -1.10860  -4.16790  -1.29010    60    61    66     8
 C    -2.32780  -3.97750  -0.70650    61    60     1    62
 C    -2.28220  -4.04420   0.69500    62    49    63    61
 C    -1.13070  -4.23300   1.38160    63    65    62    68
 C     1.15250  -4.22260   1.37660    64    65    74    67
 C     0.01070  -4.59430   0.76650    65    63    64    66
 C     0.01440  -4.55510  -0.61340    66    73    60    65
 C     1.15620  -3.34190   2.46440    67    87    72    64
 C    -1.13080  -3.35030   2.46810    68    48    72    63
 C     1.28470   0.70770   3.46960    69    70    81    55
 C     1.29100  -0.72940   3.47040    70    69    86    71
 C     0.00920  -1.44140   3.47620    71    72    52    70
 C     0.01030  -2.78960   2.98220    72    68    67    71
 C     1.12980  -4.17070  -1.30190    73    75    66     7
 C     2.30470  -4.02960   0.68160    74    76    64    75
 C     2.34470  -3.97300  -0.71800    75    73    18    74
 C     3.06400  -3.20480   1.43340    76    78    74    87
 C     4.39080  -1.32830   1.43080    77    78    97    85
 C     4.02980  -2.51650   0.88710    78    76    77    17
 C     3.05090   3.20190   1.44200    79    82    90    80
 C     2.31530   2.67670   2.48270    80    53    79    81
 C     2.48200   1.38250   2.97870    81    80    84    69
 C     4.02010   2.52570   0.88540    82    79    83    95
 C     4.38060   1.33400   1.43220    83    82   100    84
 C     3.61960   0.69510   2.46050    84    85    81    83
 C     3.62410  -0.70250   2.46340    85    84    86    77
 C     2.49130  -1.39960   2.98100    86    87    85    70
 C     2.33220  -2.69280   2.48250    87    67    76    86
 C     1.11320   4.18490  -1.28080    88    89    56    30
 C     2.33360   3.98960  -0.70120    89    88    96    90
 C     2.29490   4.03740   0.69840    90    79    59    89
 C     4.45540   0.68860  -1.86530    91    99    94    92
 C     3.41110   1.13440  -2.64000    92    91    93    15
 C     2.77620   2.34310  -2.44010    93    92    31    96
 C     4.80050   1.36880  -0.74670    94    95    91   100
 C     4.19080   2.53340  -0.48780    95    94    82    96
 C     3.23690   3.13070  -1.31730    96    89    95    93
 C     4.99720  -0.65890   0.40620    97   100    77    98
 C     4.80580  -1.35110  -0.76560    98    17    99    97
 C     4.46250  -0.66030  -1.87280    99    91    98    20
 C     4.99750   0.66360   0.41560   100    97    83    94
