   100
C100-C1-97                                                                      
 C    -3.83280   2.62620   0.33200     1     2    71     4
 C    -4.64370   1.49830   0.29210     2     3     1    56
 C    -4.93750   0.82940  -0.87530     3     6    22     2
 C    -3.22770   3.06460  -0.91260     4     5     9     1
 C    -3.42480   2.23410  -2.00790     5     6     4    37
 C    -4.25910   1.17600  -1.99530     6     5     3    23
 C    -0.23540   4.47460   0.52900     7    10    17     8
 C    -1.55430   4.20150   0.30070     8     7    74     9
 C    -2.04560   3.80450  -0.93790     9     8     4    12
 C     0.63870   4.43710  -0.44710    10     7    18    11
 C     0.22990   3.98470  -1.67950    11    39    12    10
 C    -1.05450   3.61250  -1.96680    12    11    36     9
 C     2.29150   0.17960   3.40810    13    96    75    14
 C     2.58290   1.55010   2.94450    14    15    99    13
 C     1.53270   2.51130   2.98440    15    77    14    16
 C     1.46500   3.59730   2.05300    16    19    17    15
 C     0.16600   4.07690   1.76880    17    73     7    16
 C     1.93010   4.13490  -0.20950    18    10    92    19
 C     2.43600   3.69340   1.03990    19   100    16    18
 C    -4.69090  -1.43000  -1.47780    20    43    21    22
 C    -3.94210  -1.06790  -2.55450    21    23    20    29
 C    -5.16530  -0.48190  -0.60580    22     3    42    20
 C    -3.73700   0.22410  -2.81720    23    21    24     6
 C    -2.55270   0.64980  -3.33290    24    23    37    27
 C     0.76640  -1.88920  -3.28130    25    51    48    26
 C     0.97480  -0.47980  -3.64560    26    34    31    25
 C    -1.47220  -0.19220  -3.64650    27    24    31    28
 C    -1.67370  -1.57750  -3.31820    28    29    48    27
 C    -2.91310  -1.94410  -2.76030    29    21    44    28
 C    -0.02860   1.81800  -3.42490    30    38    36    31
 C    -0.17520   0.39190  -3.73330    31    27    26    30
 C     3.51130   1.88300  -2.33510    32    89    94    33
 C     2.40730   1.49390  -3.14710    33    38    32    34
 C     2.27240   0.09710  -3.41340    34    35    33    26
 C     3.29860  -0.71670  -2.90050    35    50    90    34
 C    -1.17520   2.55520  -2.91190    36    37    12    30
 C    -2.38850   1.94890  -2.90700    37    36    24     5
 C     1.26120   2.31200  -3.10900    38    39    33    30
 C     1.32520   3.41690  -2.24510    39    11    92    38
 C    -4.43180  -1.78050   1.19630    40    42    57    41
 C    -4.03080  -2.75570   0.32620    41    43    45    40
 C    -4.99490  -0.64360   0.73470    42    40    22    56
 C    -4.12250  -2.56460  -1.00900    43    41    20    44
 C    -3.05520  -2.92330  -1.79510    44    47    43    29
 C    -2.95340  -3.38550   0.85420    45    41    46    58
 C    -1.94980  -3.94240   0.07060    46    66    45    47
 C    -1.97420  -3.62950  -1.34520    47    44    49    46
 C    -0.56200  -2.39930  -3.03580    48    28    25    49
 C    -0.76010  -3.46590  -2.05470    49    53    47    48
 C     3.09220  -2.00820  -2.51080    50    35    51    84
 C     1.85860  -2.59150  -2.67680    51    50    52    25
 C     1.61660  -3.58940  -1.74970    52    53    51    86
 C     0.34510  -3.94850  -1.41920    53    52    49    65
 C    -3.80400   0.62790   2.41920    54    56    70    55
 C    -3.21900  -0.60420   2.91910    55    57    61    54
 C    -4.65790   0.54810   1.31750    56    42    54     2
 C    -3.56620  -1.77040   2.24920    57    40    58    55
 C    -2.68060  -2.81480   2.09780    58    59    57    45
 C    -1.43780  -2.86070   2.68100    59    58    67    60
 C    -1.02750  -1.73000   3.47960    60    61    59    64
 C    -1.93970  -0.62260   3.54710    61    62    55    60
 C    -1.35870   0.60490   3.75500    62    61    69    76
 C     1.25270  -2.42620   3.15240    63    64    68    95
 C     0.38670  -1.49170   3.66510    64    63    75    60
 C     0.35060  -4.34460  -0.09070    65    78    66    53
 C    -0.75130  -4.18620   0.72160    66    65    46    67
 C    -0.49000  -3.68180   2.04560    67    68    59    66
 C     0.83070  -3.48110   2.37080    68    79    67    63
 C    -1.92700   1.77240   3.30460    69    72    62    70
 C    -3.10560   1.83500   2.56000    70    69    54    71
 C    -3.14480   2.85870   1.54370    71    74     1    70
 C    -0.90110   2.65200   3.19590    72    73    69    77
 C    -0.98040   3.63340   2.32080    73    72    17    74
 C    -2.05500   3.70180   1.47780    74    73     8    71
 C     0.94720  -0.18280   3.82520    75    76    64    13
 C     0.01520   0.81150   3.87570    76    75    77    62
 C     0.30450   2.09310   3.50580    77    72    76    15
 C     1.63230  -4.22410   0.32240    78    79    65    86
 C     1.87950  -3.80820   1.57480    79    78    81    68
 C     3.90210  -2.74430   0.88350    80    81    82    85
 C     2.95840  -3.03810   1.83980    81    79    80    95
 C     4.54350  -1.53870   1.07220    82    87    80    97
 C     4.72200  -1.19650  -1.25110    83    84    90    87
 C     3.98370  -2.30850  -1.46460    84    83    85    50
 C     3.62350  -3.15940  -0.45010    85    86    84    80
 C     2.45960  -3.83780  -0.67480    86    78    85    52
 C     5.02580  -0.81070   0.03130    87    91    82    83
 C     4.77420   1.42850  -0.56460    88    91    93    89
 C     4.43160   1.03110  -1.84410    89    90    32    88
 C     4.36200  -0.25440  -2.15560    90    89    83    35
 C     4.99520   0.50190   0.37650    91    88    87    98
 C     2.37540   3.63030  -1.38570    92    94    18    39
 C     4.09870   2.55240  -0.25490    93    88    94   100
 C     3.43450   2.88560  -1.41290    94    92    32    93
 C     2.56410  -2.14340   2.82340    95    63    96    81
 C     3.10940  -0.87560   2.93010    96    97    95    13
 C     4.14930  -0.62000   2.05890    97    98    96    82
 C     4.41360   0.65440   1.61750    98    97    91    99
 C     3.64700   1.76920   1.99330    99    98   100    14
 C     3.53960   2.82460   1.02110   100    19    93    99
