   100
C100-C2-5                                                                       
 C    -4.40460   1.28710   2.13760     1     8     3     2
 C    -4.40280  -0.04560   2.45850     2     4     1    21
 C    -4.87440   1.70860   0.93720     3     1    65    27
 C    -4.95030  -0.94100   1.62540     4     2     5    63
 C    -4.27770  -2.12360   1.44860     5     4    68    19
 C    -1.32890   2.99510   2.41830     6     7    28    13
 C    -2.62220   2.87290   2.04900     7     6     8    26
 C    -3.29580   1.83500   2.66470     8     1     7     9
 C    -2.59990   0.85220   3.35990     9    12    21     8
 C    -1.09360  -1.47660   3.34860    10    24    20    11
 C    -0.45350  -0.22360   3.74790    11    12    16    10
 C    -1.27290   0.92660   3.63980    12     9    13    11
 C    -0.67960   2.09950   3.24740    13    46    12     6
 C     2.00000  -3.03830   2.06470    14    94    25    15
 C     1.17570  -2.31770   2.92810    15    14    24    44
 C     0.97160  -0.04230   3.71230    16    44    11    45
 C    -2.44810  -3.52800   0.06220    17    69    97    18
 C    -2.11800  -3.24050   1.39470    18    23    17    19
 C    -3.04680  -2.43640   2.09690    19    18     5    20
 C    -2.49540  -1.50630   3.02870    20    21    19    10
 C    -3.24200  -0.32740   3.14430    21     9     2    20
 C     0.17860  -3.70240   0.69430    22    25    98    23
 C    -0.75490  -3.29360   1.71940    23    18    22    24
 C    -0.22490  -2.47170   2.79520    24    15    10    23
 C     1.49110  -3.60230   0.92730    25    22    14   100
 C    -2.97850   3.25670   0.73760    26    27     7    30
 C    -4.10640   2.61590   0.22510    27    49     3    26
 C    -0.36250   3.57420   1.66500    28     6    33    29
 C    -0.60080   3.93460   0.35390    29    28    36    30
 C    -1.93790   3.68400  -0.13900    30    26    31    29
 C    -2.06150   3.26100  -1.50420    31    32    48    30
 C    -0.88520   3.18010  -2.19020    32    31    37    55
 C     0.87250   3.20500   2.13310    33    34    28    46
 C     2.04870   3.28360   1.44640    34    33    42    35
 C     1.91900   3.68790   0.07370    35    39    34    36
 C     0.58080   3.92940  -0.42430    36    37    29    35
 C     0.35030   3.56150  -1.73380    37    61    32    36
 C     4.08900   2.62150  -0.27120    38    43    86    39
 C     2.95900   3.25010  -0.80090    39    38    60    35
 C     3.67240   0.34820   2.89330    40    90    47    41
 C     2.84850   1.46040   2.90600    41    40    45    42
 C     3.11870   2.48890   1.91960    42    43    34    41
 C     4.18600   2.26030   1.05950    43    91    38    42
 C     1.80130  -1.13930   3.44430    44    16    47    15
 C     1.54580   1.26560   3.41360    45    46    41    16
 C     0.64710   2.24160   3.10270    46    13    45    33
 C     3.15020  -0.90930   3.13410    47    95    40    44
 C    -3.13120   2.45540  -1.96250    48    49    31    51
 C    -4.19590   2.23150  -1.09720    49    50    27    48
 C    -5.03280   1.14150  -1.15310    50    53    65    49
 C    -2.85410   1.41880  -2.93690    51    52    56    48
 C    -3.67240   0.30560  -2.90140    52    51    53    73
 C    -4.76570   0.17330  -2.06490    53    50    66    52
 C     0.66870   2.07280  -3.30250    54    55    58    61
 C    -0.66130   2.20840  -3.15230    55    54    56    32
 C    -1.55590   1.22200  -3.45120    56    55    51    59
 C     2.59050   0.83240  -3.38820    57    58    78    62
 C     1.26280   0.89230  -3.67620    58    57    54    71
 C    -0.97500  -0.08600  -3.73300    59    72    71    56
 C     2.60240   2.86540  -2.11440    60    61    62    39
 C     1.31500   2.98490  -2.48940    61    60    37    54
 C     3.29370   1.82750  -2.70780    62    87    60    57
 C    -5.55950  -0.53300   0.44810    63    64    65     4
 C    -5.30180  -1.50290  -0.46970    64    63    68    66
 C    -5.46670   0.80170   0.10470    65     3    50    63
 C    -4.93160  -1.14540  -1.75270    66    67    53    64
 C    -3.93350  -1.79520  -2.40960    67    70    66    73
 C    -4.55950  -2.48040   0.14880    68    69    64     5
 C    -3.60180  -3.12540  -0.52850    69    68    17    70
 C    -3.30090  -2.81880  -1.82200    70    67    74    69
 C     0.45190  -0.26390  -3.76580    71    58    59    75
 C    -1.79600  -1.18840  -3.45200    72    59    73    76
 C    -3.14510  -0.95150  -3.14470    73    67    52    72
 C    -1.99550  -3.07370  -2.05600    74    70    97    76
 C     1.09300  -1.51270  -3.35240    75    80    79    71
 C    -1.17050  -2.36350  -2.92800    76    74    80    72
 C     4.39220  -0.05130  -2.47480    77    81    87    78
 C     3.23250  -0.34590  -3.15580    78    57    77    79
 C     2.49340  -1.53150  -3.02810    79    78    83    75
 C     0.22970  -2.50750  -2.79350    80    76    75    84
 C     4.93740  -0.93440  -1.62920    81    77    82    88
 C     4.27390  -2.11910  -1.44060    82    81    96    83
 C     3.04640  -2.45100  -2.08570    83    99    82    79
 C     0.76110  -3.31770  -1.70670    84    99    98    80
 C     5.44010   0.82750  -0.11200    85    86    91    88
 C     4.86330   1.71040  -0.97920    86    87    85    38
 C     4.39850   1.28430  -2.17590    87    62    86    77
 C     5.53550  -0.51110  -0.45190    88    92    85    81
 C     4.94290  -1.10240   1.75930    89    95    90    92
 C     4.77450   0.22150   2.06970    90    91    89    40
 C     5.03010   1.17850   1.14870    91    90    85    43
 C     5.29250  -1.47380   0.47630    92    88    96    89
 C     3.60390  -3.11110   0.54630    93    96   100    94
 C     3.31210  -2.78890   1.83770    94    95    14    93
 C     3.94360  -1.76330   2.41500    95    94    89    47
 C     4.55620  -2.46170  -0.13560    96    93    92    82
 C    -1.48330  -3.62680  -0.91590    97    98    74    17
 C    -0.17490  -3.71780  -0.68320    98    97    22    84
 C     2.12170  -3.25420  -1.37920    99   100    84    83
 C     2.45910  -3.52720  -0.04990   100    93    25    99
