   100
C100-C1-24                                                                      
 C     3.81730   2.68590  -0.94820     1    62     2     4
 C     4.35360   2.36320   0.30890     2     3    35     1
 C     4.99870   1.22240   0.59560     3     2     6    32
 C     3.84920   1.62280  -1.92970     4     5     8     1
 C     4.56130   0.48740  -1.59240     5    12     4     6
 C     5.21230   0.30390  -0.37060     6     3    23     5
 C     1.82530   2.45090  -2.84860     7    18     8    61
 C     2.75240   1.44200  -2.84350     8     7     4    10
 C     0.85590  -0.04380  -3.67230     9    21    16    10
 C     2.27670   0.13730  -3.29490    10    11     8     9
 C     3.04510  -0.98040  -2.85650    11    14    12    10
 C     4.19470  -0.75890  -2.05320    12     5    24    11
 C     1.03520  -2.38440  -3.03030    13    15    14    16
 C     2.40860  -2.23350  -2.71160    14    11    13    26
 C     0.36830  -3.37780  -2.31220    15   100    27    13
 C     0.20550  -1.32830  -3.53860    16    13     9    17
 C    -1.26090  -1.43260  -3.40560    17    99    96    16
 C     0.53760   2.28070  -3.27910    18    75     7    21
 C    -2.14260   2.06320  -3.00070    19    74    79    20
 C    -1.45970   0.96540  -3.56580    20    19    96    21
 C    -0.03200   1.07250  -3.68830    21    18     9    20
 C     3.99470  -2.77670  -0.91470    22    24    26    28
 C     5.24080  -1.00970  -0.05870    23     6    24    30
 C     4.68280  -1.65630  -1.11380    24    22    23    12
 C     2.14610  -3.85610  -0.93030    25    27    26    33
 C     2.94230  -3.07550  -1.70230    26    22    25    14
 C     0.91280  -4.01100  -1.23730    27    25    52    15
 C     3.71670  -3.22750   0.36260    28    29    33    22
 C     4.08650  -2.47990   1.40480    29    28    30    56
 C     4.89800  -1.41230   1.22300    30    31    29    23
 C     4.50820  -0.48870   2.13150    31    32    30    37
 C     4.61220   0.80980   1.85950    32    31    36     3
 C     2.52920  -3.83760   0.37790    33    28    25    54
 C     2.59000   3.45580   1.40510    34    35    63    43
 C     3.64980   2.68850   1.45270    35    34    36     2
 C     3.69750   1.66470   2.35320    36    32    35    39
 C     3.38300  -0.94530   2.81380    37    56    31    38
 C     2.36580  -0.11530   3.31200    38    37    39    47
 C     2.55570   1.28570   3.10550    39    42    36    38
 C    -0.05700   0.24710   3.62490    40    50    47    41
 C     0.13420   1.67910   3.35600    41    42    45    40
 C     1.43230   2.13280   3.06120    42    43    41    39
 C     1.51660   3.25510   2.22230    43    34    65    42
 C    -2.22000   1.92450   2.93580    44    45    51    70
 C    -0.98530   2.47600   2.88110    45    44    64    41
 C     0.78160  -2.05840   3.05950    46    55    59    47
 C     1.05090  -0.66980   3.49360    47    38    40    46
 C    -2.93850  -1.90480   2.71540    48    60    90    49
 C    -1.64140  -1.63220   3.19660    49    48    59    50
 C    -1.37500  -0.26650   3.56130    50    51    40    49
 C    -2.43260   0.62810   3.33720    51    91    44    50
 C    -0.02470  -4.22940  -0.29180    52    92    27    53
 C     0.22790  -4.00310   1.07310    53    54    52    58
 C     1.55750  -3.72930   1.40020    54    53    33    55
 C     1.85260  -2.78230   2.42540    55    56    54    46
 C     3.12840  -2.21940   2.37710    56    37    29    55
 C    -2.16880  -3.56790   1.20660    57    60    94    58
 C    -0.86360  -3.50980   1.81190    58    53    57    59
 C    -0.57360  -2.49300   2.82550    59    49    46    58
 C    -3.20010  -2.83650   1.73810    60    57    48    88
 C     1.83580   3.51050  -1.94530    61    62    69     7
 C     2.75500   3.58650  -0.95070    62    61     1    63
 C     2.17730   4.01250   0.24660    63    34    66    62
 C    -0.84300   3.54090   1.93130    64    65    45    67
 C     0.44500   3.86320   1.63410    65    64    43    66
 C     0.85730   4.33450   0.40510    66    68    63    65
 C    -1.86370   3.80720   0.94170    67    71    72    64
 C    -0.02680   4.39210  -0.61530    68    66    69    72
 C     0.54240   3.94630  -1.80910    69    75    61    68
 C    -3.29230   2.30930   2.13820    70    84    71    44
 C    -3.11920   3.15770   1.05040    71    70    67    82
 C    -1.38870   4.17690  -0.36240    72    73    68    67
 C    -2.11970   3.64350  -1.41780    73    81    74    72
 C    -1.48890   3.14840  -2.52680    74    75    19    73
 C    -0.20010   3.26500  -2.69040    75    74    69    18
 C    -5.22700  -0.40410  -0.53660    76    80    77    85
 C    -4.86650   0.79070  -1.09450    77    76    78    83
 C    -4.03260   0.86190  -2.22060    78    79    77    95
 C    -3.31660   2.00530  -2.30550    79    78    19    81
 C    -4.72610  -1.52250  -1.10460    80    76    87    97
 C    -3.27930   2.97090  -1.29140    81    73    82    79
 C    -3.89970   2.78480  -0.08900    82    81    83    71
 C    -4.77340   1.71340  -0.03730    83    86    82    77
 C    -4.21200   1.30360   2.16600    84    86    70    91
 C    -5.32380  -0.27600   0.82600    85    86    76    89
 C    -5.02110   1.01300   1.11160    86    85    84    83
 C    -4.33600  -2.55980  -0.30080    87    93    88    80
 C    -4.33090  -2.41760   1.05020    88    89    87    60
 C    -4.81210  -1.28670   1.60780    89    88    90    85
 C    -3.95630  -0.98350   2.62520    90    91    89    48
 C    -3.67310   0.28680   2.90640    91    90    51    84
 C    -1.19940  -4.00910  -0.88910    92    94    52   100
 C    -3.32090  -3.19390  -0.90850    93    87    94    98
 C    -2.31590  -3.80400  -0.19320    94    92    93    57
 C    -3.44930  -0.30420  -2.80080    95    97    78    96
 C    -2.12510  -0.27380  -3.42470    96    20    17    95
 C    -3.87180  -1.47730  -2.18870    97    98    80    95
 C    -3.04400  -2.54640  -2.12220    98    97    99    93
 C    -1.80870  -2.56250  -2.71860    99   100    98    17
 C    -0.95410  -3.43570  -2.14090   100    15    99    92
