   100
C100-C1-242                                                                     
 C    -1.48180  -4.19880  -1.00340     1     2     5    61
 C    -2.47950  -3.83340  -0.13590     2    59     1    15
 C     0.99700  -3.91660  -2.12620     3     4     6    62
 C     0.91170  -4.44720  -0.91680     4     3     5     7
 C    -0.30530  -4.60970  -0.36010     5     4    13     1
 C     2.09010  -3.19960  -2.44900     6     3    74     9
 C     1.87330  -4.17650   0.02970     7    17     4     8
 C     2.98950  -3.38520  -0.21030     8     7    19     9
 C     3.14450  -2.91110  -1.56160     9    11     6     8
 C     4.39380  -1.06090  -0.76380    10    11   100    18
 C     3.82380  -1.71610  -1.81830    11    10     9    12
 C     3.37010  -0.87060  -2.83720    12    71    95    11
 C    -0.11470  -4.53050   0.99940    13    14     5    17
 C    -1.12000  -4.10190   1.80700    14    16    13    15
 C    -2.31380  -3.77880   1.23700    15    14    25     2
 C    -0.74200  -3.34970   2.87260    16    14    22    23
 C     1.22570  -4.20950   1.23410    17     7    21    13
 C     4.21380  -1.48960   0.55030    18    42    19    10
 C     3.47260  -2.61020   0.89390    19    18     8    20
 C     2.77100  -2.56680   2.16450    20    21    19    41
 C     1.62850  -3.41300   2.29640    21    17    22    20
 C     0.57840  -3.02800   3.11770    22    36    16    21
 C    -1.54390  -2.32470   3.34470    23    29    24    16
 C    -2.76490  -1.96840   2.79960    24    23    25    26
 C    -3.12370  -2.77490   1.72020    25    45    15    24
 C    -3.19490  -0.60970   2.84050    26    24    27    32
 C    -4.09190  -0.18240   1.81650    27    28    26    44
 C    -4.13380   1.17430   1.53370    28    46    34    27
 C    -0.72620  -1.41630   3.92280    29    23    31    36
 C    -0.00390   0.73800   4.08540    30    31    53    40
 C    -1.09060  -0.09320   4.00530    31    30    29    32
 C    -2.31520   0.37810   3.46570    32    31    33    26
 C    -2.33500   1.76430   3.04460    33    34    54    32
 C    -3.27920   2.10440   2.10100    34    33    28    56
 C     1.67360  -1.02710   3.76340    35    36    40    41
 C     0.59240  -1.85820   3.79780    36    22    35    29
 C     3.56190   2.14730   2.02080    37    94    88    38
 C     3.24230   1.10650   2.88150    38    39    37    43
 C     2.07600   1.32790   3.57010    39    40    38    90
 C     1.32130   0.29320   3.99240    40    39    35    30
 C     2.81930  -1.34380   2.96510    41    43    35    20
 C     4.30870  -0.37430   1.34980    42    18    92    43
 C     3.61150  -0.23250   2.54540    43    42    41    38
 C    -4.39870  -1.05220   0.71450    44    45    48    27
 C    -3.85880  -2.29740   0.68380    45    25    44    59
 C    -4.48210   1.65510   0.29960    46    47    49    28
 C    -4.66210   0.80850  -0.73820    47    48    46    50
 C    -4.59510  -0.51440  -0.54760    48    47    44    57
 C    -3.85560   2.83660   0.09740    49    52    46    56
 C    -4.14170   1.09110  -1.96120    50    51    65    47
 C    -3.52080   2.25120  -2.14490    51    50    52    66
 C    -3.41050   3.15700  -1.13820    52    86    49    51
 C    -0.04160   2.04330   3.65860    53    90    30    54
 C    -1.17420   2.61490   3.09130    54    53    33    82
 C    -1.92480   3.89140   1.12660    55    56    82    85
 C    -3.09520   3.14180   1.19750    56    49    34    55
 C    -4.04100  -1.07270  -1.70860    57    58    65    48
 C    -3.39160  -2.26770  -1.71690    58    57    59    60
 C    -3.41600  -2.91950  -0.48880    59     2    58    45
 C    -2.31520  -2.48050  -2.62200    60    58    61    69
 C    -1.39350  -3.51600  -2.25420    61    62     1    60
 C    -0.12380  -3.42590  -2.77520    62    64    61     3
 C    -0.51190  -1.28210  -3.87200    63    64    69    73
 C     0.29300  -2.38040  -3.54680    64    62    74    63
 C    -3.68410  -0.04330  -2.54970    65    50    57    68
 C    -2.40580   2.28950  -2.92790    66    51    75    67
 C    -1.85230   1.17080  -3.57350    67    66    72    68
 C    -2.54740  -0.09160  -3.37550    68    65    69    67
 C    -1.86830  -1.33970  -3.44820    69    63    68    60
 C     1.57230  -0.03980  -3.88590    70    71    80    73
 C     2.26660  -1.16740  -3.56040    71    74    12    70
 C    -0.45120   1.22750  -3.84380    72    73    67    78
 C     0.17970  -0.02310  -4.05720    73    70    72    63
 C     1.64840  -2.30920  -3.38820    74    71    64     6
 C    -1.65020   3.33140  -2.43870    75    77    66    86
 C     0.37590   4.08270  -1.67020    76    96    77    84
 C    -0.30630   3.38730  -2.65150    77    75    76    78
 C     0.36020   2.37480  -3.38920    78    77    79    72
 C     1.77670   2.23350  -3.14290    79    80    97    78
 C     2.33290   1.01300  -3.43530    80    79    70    95
 C     0.42980   4.03130   1.82470    81    83    89    82
 C    -0.93090   3.67720   2.12770    82    55    81    54
 C     0.71270   4.43090   0.50810    83    84    91    81
 C    -0.23420   4.47460  -0.46290    84    85    83    76
 C    -1.54810   4.28540  -0.20130    85    84    86    55
 C    -2.27200   3.83340  -1.28670    86    52    85    75
 C     2.90620   3.62280   0.53970    87    91    93    88
 C     2.73420   3.24260   1.83800    88    87    37    89
 C     1.51570   3.40940   2.48220    89    90    88    81
 C     1.24300   2.42360   3.37900    90    89    53    39
 C     1.90230   4.18010  -0.11630    91    87    83    96
 C     4.58290   0.69230   0.52280    92    94   100    42
 C     3.76960   2.79960  -0.10940    93    87    94    98
 C     4.21350   1.93020   0.84490    94    92    37    93
 C     3.45680   0.50040  -2.79440    95    99    12    80
 C     1.69940   3.89220  -1.43950    96    76    91    97
 C     2.48430   2.99240  -2.14960    97    96    79    98
 C     3.61980   2.44080  -1.46140    98    99    93    97
 C     4.08970   1.15890  -1.78190    99    95    98   100
 C     4.57390   0.30970  -0.77610   100    92    10    99
