   100
C100-C1-214                                                                     
 C    -2.06450  -2.43160  -2.93100     1     6     2    60
 C    -3.07890  -2.59010  -2.03240     2     1     3    10
 C    -3.94300  -1.50740  -1.98850     3     4     2    59
 C    -4.65040  -1.21170  -0.88010     4     3     5    14
 C    -4.43180  -1.92180   0.24930     5     4    15    11
 C    -0.90460  -3.11240  -2.81990     6     1    75     8
 C     0.70470  -4.10140  -1.52800     7     8    24    76
 C    -0.63800  -3.94340  -1.73630     8     7     6     9
 C    -1.56730  -4.00940  -0.65830     9     8    10    26
 C    -2.82820  -3.36940  -0.85530    10    11     9     2
 C    -3.52550  -2.94850   0.27250    11     5    28    10
 C    -4.82650   0.74690   0.37150    12    14    32    13
 C    -4.59030   0.04040   1.51460    13    15    17    12
 C    -4.82700   0.13590  -0.83040    14    12     4    40
 C    -4.39420  -1.28980   1.44850    15    13    16     5
 C    -3.48040  -1.89380   2.24220    16    15    28    19
 C    -3.85320   0.80060   2.36990    17    13    33    18
 C    -2.91540   0.26150   3.24520    18    17    35    19
 C    -2.74360  -1.18170   3.19140    19    22    16    18
 C     0.33050  -3.15290   2.91990    20    90    29    21
 C    -1.04170  -2.96320   2.89550    21    20    27    22
 C    -1.53180  -1.76950   3.54550    22    23    19    21
 C    -0.57680  -0.89030   4.04240    23    91    34    22
 C     1.22010  -4.30610  -0.27420    24     7    25    95
 C     0.39250  -4.28960   0.82850    25    24    29    26
 C    -1.01800  -4.14270   0.69010    26    25    27     9
 C    -1.73450  -3.53060   1.78590    27    28    21    26
 C    -2.96500  -2.98250   1.53700    28    27    11    16
 C     1.03610  -3.80340   1.95180    29    20    25    98
 C    -2.75960   3.53170  -0.23900    30    41    31    38
 C    -3.71540   2.63000  -0.58250    31    30    32    39
 C    -4.25750   1.96190   0.51000    32    12    31    33
 C    -3.68630   2.03360   1.78860    33    37    17    32
 C    -0.69570   0.48420   4.04210    34    35    23    49
 C    -1.83120   1.12270   3.60370    35    34    18    36
 C    -1.63850   2.43520   3.03580    36    37    35    51
 C    -2.62200   2.84610   2.08700    37    33    38    36
 C    -2.24960   3.67580   1.05510    38    53    37    30
 C    -3.61710   1.97300  -1.85720    39    40    31    43
 C    -4.19950   0.71320  -1.90350    40    59    14    39
 C    -1.78930   3.90800  -1.10920    41    30    45    42
 C    -1.61650   3.27470  -2.33900    42    44    41    43
 C    -2.48670   2.23110  -2.71700    43    42    39    57
 C    -0.30190   3.26470  -2.76260    44    55    48    42
 C    -0.74260   4.40970  -0.36790    45    47    41    53
 C     1.52900   4.31780   0.06270    46    47    68    54
 C     0.52200   4.43340  -0.84590    47    45    46    48
 C     0.73290   3.85730  -2.07130    48    47    70    44
 C     0.58070   1.02240   3.97600    49    50    94    34
 C     0.85150   2.25560   3.43120    50    49    86    51
 C    -0.29130   2.99800   2.94210    51    52    50    36
 C    -0.02310   3.93340   1.89830    52    54    53    51
 C    -1.01320   4.20240   0.97310    53    38    52    45
 C     1.26110   4.05930   1.41140    54    87    52    46
 C     0.24090   2.23890  -3.49400    55    44    56    61
 C    -0.51500   1.15080  -3.87370    56    55    64    57
 C    -1.92680   1.14740  -3.52240    57    58    56    43
 C    -2.56040  -0.11530  -3.44000    58    60    59    57
 C    -3.67310  -0.30320  -2.65640    59    40    58     3
 C    -1.80230  -1.24570  -3.61760    60    65    58     1
 C     1.61010   2.20460  -3.26620    61    70    62    55
 C     2.37920   1.05730  -3.37890    62    61    72    63
 C     1.68620  -0.12790  -3.81030    63    67    62    64
 C     0.25540  -0.04780  -4.06250    64    65    56    63
 C    -0.47100  -1.22240  -3.92240    65    60    75    64
 C     3.38450  -1.40240  -2.63890    66    73    80    67
 C     2.23400  -1.40280  -3.42920    67    66    74    63
 C     2.72690   3.74400  -0.26210    68    82    46    69
 C     2.97200   3.16220  -1.51500    69    70    71    68
 C     1.91060   3.22500  -2.38490    70    48    69    61
 C     3.81430   2.04690  -1.59230    71    69    84    72
 C     3.54570   1.00780  -2.54290    72    73    71    62
 C     3.99560  -0.25960  -2.20780    73    66    78    72
 C     1.39530  -2.52760  -3.25500    74    75    76    67
 C     0.07550  -2.40530  -3.50400    75    74    65     6
 C     1.68980  -3.47030  -2.27660    76    81     7    74
 C     4.72540   0.36920  -0.07300    77    78    84    99
 C     4.58660  -0.57280  -0.99730    78    77    79    73
 C     4.31630  -1.84890  -0.63150    79    78    80    96
 C     3.64610  -2.38220  -1.69570    80    81    79    66
 C     2.78840  -3.37690  -1.50500    81    80    76    95
 C     3.22080   3.22700   0.89110    82    83    68    87
 C     4.04910   2.19840   0.84200    83    82    84    88
 C     4.38790   1.64900  -0.36320    84    77    83    71
 C     3.10850   1.28980   2.87260    85    88    93    86
 C     2.17760   2.39990   2.90840    86    87    50    85
 C     2.31450   3.35090   1.90760    87    54    82    86
 C     4.03540   1.24110   1.82300    88    83    99    85
 C     2.42360  -2.31960   2.90230    89    90    98    92
 C     1.20310  -2.27820   3.49440    90    91    89    20
 C     0.75140  -1.15110   4.01710    91    90    23    94
 C     3.26950  -1.20700   2.80630    92    89   100    93
 C     2.75420   0.02340   3.37720    93    94    85    92
 C     1.49280  -0.01790   3.96010    94    91    49    93
 C     2.53590  -3.85210  -0.25950    95    81    97    24
 C     4.07460  -2.23610   0.70460    96    79    97   100
 C     3.14960  -3.29760   0.85580    97    98    95    96
 C     2.35140  -3.31520   1.95930    98    97    89    29
 C     4.50430   0.07570   1.25910    99    88    77   100
 C     4.13990  -1.19180   1.68910   100    99    92    96
