   100
C100-C1-186                                                                     
 C    -3.04780   3.03390   1.44700     1     2     5    54
 C    -3.97400   2.13630   1.07160     2     1    51    15
 C    -0.62710   4.29820   1.52400     3     4    11    55
 C    -1.39170   4.44270   0.44860     4     3     5     7
 C    -2.58500   3.83360   0.40180     5     4    13     1
 C     0.95790   3.86720  -2.06780     6     8    99    19
 C    -0.81780   4.51770  -0.78150     7     4     8    18
 C     0.55350   4.51400  -0.93580     8     6     7     9
 C     1.41720   4.45540   0.18040     9     8    11    10
 C     2.68770   3.80200   0.08830    10    12    98     9
 C     0.72440   4.34280   1.40650    11    72     3     9
 C     3.14410   3.16580   1.24220    12    80    73    10
 C    -2.82880   3.53560  -0.93040    13    14    18     5
 C    -3.63820   2.52560  -1.31750    14    13    15    22
 C    -4.33780   1.93220  -0.27110    15    16    14     2
 C    -4.82480   0.69470  -0.34560    16    15    17    26
 C    -4.57010  -0.04560  -1.45230    17    27    16    23
 C    -1.71050   3.87840  -1.63360    18    13    20     7
 C     0.06230   3.16650  -2.89630    19    32    20     6
 C    -1.29010   3.10680  -2.70750    20    19    18    21
 C    -2.00700   1.93870  -3.10340    21    20    22    34
 C    -3.24840   1.71360  -2.43380    22    23    21    14
 C    -3.73660   0.42350  -2.43240    23    17    22    36
 C    -4.61580  -1.18870   0.99010    24    26    42    25
 C    -4.49560  -1.97650  -0.13150    25    29    27    24
 C    -4.77320   0.12080   0.88700    26    24    16    51
 C    -4.40230  -1.37680  -1.33900    27    17    25    28
 C    -3.45400  -1.78250  -2.23840    28    27    31    36
 C    -3.71640  -3.02920   0.13750    29    25    43    30
 C    -2.82410  -3.59200  -0.78190    30    46    29    31
 C    -2.64910  -2.88900  -2.03650    31    28    39    30
 C     0.73330   2.13860  -3.47350    32    19    91    33
 C     0.13890   0.91950  -3.84990    33    32    34    94
 C    -1.26400   0.79470  -3.66370    34    33    35    21
 C    -1.77280  -0.54500  -3.51830    35    36    34    38
 C    -3.02860  -0.65930  -2.93460    36    23    28    35
 C     0.51380  -1.53250  -3.63810    37    94    95    38
 C    -0.91510  -1.71190  -3.45660    38    35    37    39
 C    -1.39590  -2.87250  -2.70500    39    40    31    38
 C    -0.44000  -3.72100  -2.17170    40    96    39    45
 C    -2.25870  -3.37740   1.92240    41    43    44    47
 C    -3.82090  -1.69010   1.96580    42    24    43    49
 C    -3.37620  -2.87090   1.47080    43    41    42    29
 C    -1.48360  -4.15240   1.14130    44    41    69    46
 C    -0.59650  -4.39390  -0.96080    45    46    70    40
 C    -1.73130  -4.26300  -0.23480    46    45    30    44
 C    -1.50610  -2.70130   2.85250    47    56    41    48
 C    -1.82410  -1.41610   3.32400    48    47    49    59
 C    -3.06620  -0.88080   2.86370    49    50    42    48
 C    -3.23750   0.52340   2.75710    50    49    51    53
 C    -4.14220   0.96310   1.75570    51    26     2    50
 C    -0.92640   0.84670   3.68050    52    63    59    53
 C    -2.18650   1.40390   3.15220    53    50    54    52
 C    -2.17810   2.71780   2.53130    54    55     1    53
 C    -0.99880   3.42080   2.53030    55    64    54     3
 C    -0.23960  -3.19940   2.72850    56    47    57    69
 C     0.86750  -2.49990   3.14090    57    56    67    58
 C     0.63690  -1.16160   3.68330    58    61    57    59
 C    -0.72380  -0.59600   3.73050    59    48    52    58
 C     2.94630  -0.75120   3.08000    60    68    76    61
 C     1.74780  -0.27440   3.65110    61    62    60    58
 C     1.55630   1.12260   3.63910    62    61    63    74
 C     0.24870   1.67420   3.64890    63    64    62    52
 C     0.14370   2.95040   3.07920    64    55    72    63
 C     3.05120  -3.62140   0.39990    65    82    90    66
 C     2.09340  -3.83690   1.40760    66    71    65    67
 C     2.09070  -2.90720   2.50860    67    68    57    66
 C     3.10870  -1.98240   2.52150    68    60    67    83
 C    -0.22770  -4.12940   1.68910    69    71    44    56
 C     0.64590  -4.55410  -0.39700    70    86    45    71
 C     0.89280  -4.39610   0.97160    71    69    66    70
 C     1.17980   3.59670   2.43610    72    73    11    64
 C     2.36050   3.04900   2.37200    73    72    74    12
 C     2.57970   1.88020   3.00360    74    73    77    62
 C     4.46100  -0.57520   1.41450    75    76    83    78
 C     3.85310   0.07060   2.43700    76    77    75    60
 C     3.64980   1.35700   2.36730    77    76    74    80
 C     4.75700   0.05650   0.18100    78    85    75    79
 C     4.46640   1.46090   0.08920    79    80    97    78
 C     3.97770   2.08000   1.23820    80    12    77    79
 C     4.23750  -2.11390  -0.76930    81    82    89    85
 C     4.00100  -2.65690   0.46900    82    83    65    81
 C     4.06840  -1.87180   1.53070    83    82    75    68
 C     4.09610  -0.21510  -2.08420    84   100    85    87
 C     4.59810  -0.78620  -0.94470    85    84    81    78
 C     1.54420  -4.13700  -1.31360    86    90    70    96
 C     3.18790  -0.88300  -2.92530    87    88    93    84
 C     2.77860  -2.16170  -2.72350    88    87    89    95
 C     3.39530  -2.78480  -1.64080    89    90    81    88
 C     2.74700  -3.73440  -0.93120    90    86    89    65
 C     2.03020   2.27060  -3.07280    91    92    32    99
 C     2.82450   1.23240  -3.08250    92    91    93   100
 C     2.35620   0.02380  -3.50010    93    87    92    94
 C     1.01130  -0.21400  -3.85560    94    93    37    33
 C     1.44180  -2.50320  -3.09600    95    96    88    37
 C     0.89590  -3.55520  -2.37950    96    40    86    95
 C     3.99630   2.04250  -1.12040    97   100    79    98
 C     3.12070   3.19010  -1.11770    98    99    10    97
 C     2.18170   3.26740  -2.15440    99    91     6    98
 C     3.83190   1.12210  -2.16370   100    84    92    97
