   100
C100-Cs-14                                                                      
 C     4.36420  -2.09560  -1.17240     1     5    64     2
 C     4.90920  -1.57890  -0.00070     2     3     1     4
 C     5.24350  -0.23580   0.00430     3     2    11    63
 C     4.35600  -2.08410   1.17390     4     8     9     2
 C     3.39010  -3.06740  -1.16650     5     7     1    69
 C     1.61520  -3.97270  -0.00500     6     7    70    13
 C     2.91160  -3.58230   0.00380     7     6     8     5
 C     3.38300  -3.05630   1.17080     8     7     4    15
 C     4.11110  -1.29310   2.27590     9    10     4    16
 C     4.45310   0.03620   2.26480    10     9    12    11
 C     5.03630   0.56310   1.12020    11    21     3    10
 C     3.56170   0.83230   2.94640    12    19    10    18
 C     0.79930  -3.87140   1.10200    13    33     6    14
 C     1.20400  -3.24250   2.26240    14    15    13    38
 C     2.53040  -2.86210   2.24680    15    16    14     8
 C     2.96500  -1.76660   2.91420    16    15    17     9
 C     2.04510  -0.97710   3.58020    17    18    16    39
 C     2.42150   0.35250   3.57570    18    31    17    12
 C     3.28870   2.11260   2.52490    19    20    12    23
 C     3.85560   2.64620   1.39190    20    22    19    21
 C     4.73360   1.83980   0.68520    21    11    43    20
 C     3.01640   3.45980   0.67320    22    41    20    28
 C     1.99610   2.40540   2.91670    23    31    27    19
 C    -2.01910   1.80990   3.11990    24    25    59    32
 C    -0.71220   2.11800   3.20650    25    24    30    26
 C    -0.22270   3.15540   2.33330    26    27    25    58
 C     1.16640   3.26740   2.22550    27    28    23    26
 C     1.72990   3.76210   1.07820    28    52    27    22
 C    -1.67270  -0.53090   3.63680    29    32    34    35
 C     0.14330   1.10460   3.73630    30    31    25    34
 C     1.47870   1.33310   3.59490    31    18    30    23
 C    -2.52290   0.55920   3.42060    32    96    24    29
 C    -0.48800  -3.89530   0.68880    33    13    36    84
 C    -0.30750  -0.27140   3.85200    34    29    39    30
 C    -2.13390  -1.76440   3.07640    35    40    37    29
 C    -1.52910  -3.43440   1.43770    36    33    99    37
 C    -1.17310  -2.70140   2.64310    37    35    38    36
 C     0.21070  -2.53440   3.00030    38    14    37    39
 C     0.66030  -1.32140   3.65940    39    17    34    38
 C    -3.40570  -1.76630   2.47650    40    95   100    35
 C     3.02230   3.46250  -0.69380    41    22    42    45
 C     3.86100   2.63870  -1.40740    42    44    41    43
 C     4.73830   1.83050  -0.69910    43    21    63    42
 C     3.29310   2.10240  -2.53690    44    61    42    48
 C     1.73440   3.76590  -1.09910    45    47    52    41
 C    -0.21870   3.15550  -2.34350    46    47    50    56
 C     1.17060   3.26570  -2.24320    47    45    48    46
 C     2.00260   2.40270  -2.92820    48    72    47    44
 C    -2.01150   1.80650  -3.12620    49    50    57    74
 C    -0.70560   2.11520  -3.21400    50    49    71    46
 C    -0.44160   3.91330  -0.00460    51    52    58    56
 C     0.93470   4.00060  -0.00930    52    28    45    51
 C    -4.36130   2.31220   0.00040    53    91    86    54
 C    -3.18150   3.11010  -0.00300    54    53    60    55
 C    -2.44070   3.21430  -1.22020    55    57    56    54
 C    -1.08650   3.59590  -1.25050    56    55    51    46
 C    -2.90170   2.40150  -2.25820    57    87    49    55
 C    -1.08860   3.59710   1.23940    58    60    51    26
 C    -2.90410   2.40940   2.24940    59    89    24    60
 C    -2.44230   3.21800   1.21010    60    59    58    54
 C     3.56900   0.82470  -2.95530    61    44    62    65
 C     4.45810   0.02750  -2.26960    62    64    61    63
 C     5.04470   0.54980  -1.12620    63    43    62     3
 C     4.11200  -1.30190  -2.27400    64    62     1    67
 C     2.43140   0.34100  -3.58440    65    72    66    61
 C     2.05240  -0.98610  -3.57530    66    65    67    77
 C     2.96320  -1.78080  -2.90270    67    69    66    64
 C     1.20060  -3.25320  -2.25930    68    70    69    78
 C     2.53020  -2.88010  -2.24310    69    67    68     5
 C     0.79330  -3.88180  -1.10280    70    84     6    68
 C     0.15110   1.10000  -3.74150    71    72    50    76
 C     1.48740   1.32610  -3.60230    72    71    65    48
 C    -1.17320  -2.70500  -2.63970    73    82    78    83
 C    -2.51350   0.55410  -3.42290    74    79    49    75
 C    -1.66330  -0.53500  -3.63840    75    74    76    82
 C    -0.29930  -0.27610  -3.85500    76    75    77    71
 C     0.66600  -1.32670  -3.65890    77    66    76    78
 C     0.21320  -2.53880  -3.00030    78    68    73    77
 C    -3.74780   0.47710  -2.87490    79    80    74    87
 C    -4.24610  -0.68640  -2.43500    80    79    88    81
 C    -3.39590  -1.76620  -2.46960    81    80    97    82
 C    -2.12960  -1.76370  -3.07530    82    81    73    75
 C    -1.53340  -3.44250  -1.43710    83    84    98    73
 C    -0.49120  -3.90610  -0.69880    84    70    83    33
 C    -5.39730   0.42510  -0.67220    85    90    88    86
 C    -4.78900   1.59260  -1.09190    86    87    53    85
 C    -4.00730   1.62020  -2.17870    87    86    57    79
 C    -5.07190  -0.73140  -1.35310    88    80    92    85
 C    -4.01200   1.62320   2.17110    89    91    59    96
 C    -5.41500   0.42040   0.68940    90    85    91    94
 C    -4.80150   1.58910   1.08320    91    89    53    90
 C    -4.72860  -1.86050  -0.67020    92    93    88    97
 C    -4.73560  -1.85310   0.68600    93    92    94   100
 C    -5.09220  -0.72980   1.37770    94    95    93    90
 C    -4.26030  -0.68640   2.45520    95    96    94    40
 C    -3.75890   0.48120   2.87810    96    95    32    89
 C    -3.70790  -2.50270  -1.33910    97    98    92    81
 C    -2.73030  -3.25240  -0.72210    98    97    83    99
 C    -2.73310  -3.24860   0.72830    99   100    36    98
 C    -3.71300  -2.50140   1.34420   100    99    93    40
