   100
C100-C1-112                                                                     
 C     3.50890   1.33760   2.47890     1     2     6    56
 C     3.99090   0.07490   2.30960     2     1     3    10
 C     4.78530  -0.09270   1.15340     3     4    44     2
 C     4.84060  -1.28450   0.51930     4     5     3    17
 C     4.18610  -2.32990   1.03790     5     4    18    11
 C     2.31100   1.59100   3.12030     6    60     1     8
 C     0.06050   0.95850   3.74790     7    13     8    62
 C     1.45110   0.60040   3.61660     8     6     9     7
 C     1.89910  -0.75940   3.45630     9     8    14    10
 C     3.19420  -0.99160   2.81830    10    11     2     9
 C     3.38690  -2.20060   2.15030    11    24     5    10
 C    -2.23680   0.21270   3.51420    12    63    98    13
 C    -0.89960  -0.10790   3.79910    13    12     7    22
 C     0.88340  -1.79300   3.42160    14    23    22     9
 C     4.15810  -1.90290  -1.63420    15    17    16    31
 C     3.57030  -3.01230  -1.12350    16    18    15    39
 C     4.85220  -1.06510  -0.83250    17    30    15     4
 C     3.60560  -3.23900   0.21050    18    19    16     5
 C     2.53340  -3.76050   0.80850    19    18    20    24
 C     1.44410  -4.20080   0.08540    20    21    19    38
 C     0.31520  -4.25240   0.80750    21    20    90    27
 C    -0.51790  -1.48190   3.61090    22    13    14    25
 C     1.20290  -2.97940   2.67920    23    24    27    14
 C     2.40210  -3.12840   2.05270    24    11    23    19
 C    -1.53850  -2.37950   3.09070    25    26    99    22
 C    -1.09390  -3.42760   2.29740    26    27    89    25
 C     0.19580  -3.68740   2.08570    27    26    23    21
 C     3.63220   2.06560  -1.91420    28    29    36    45
 C     4.09320   0.79240  -2.12110    29    28    30    32
 C     4.83600   0.26140  -1.05570    30    17    44    29
 C     3.36680  -1.42170  -2.64340    31    15    40    32
 C     3.28360  -0.05880  -2.93370    32    31    29    34
 C     1.02430  -0.58780  -3.75860    33    37    42    34
 C     2.05530   0.39240  -3.50840    34    32    33    35
 C     1.64930   1.76970  -3.29610    35    36    52    34
 C     2.47550   2.53790  -2.49150    36    50    28    35
 C    -0.24300  -0.10510  -3.91890    37    33    97    51
 C     1.32230  -3.93130  -1.31130    38    39    20    43
 C     2.42850  -3.27980  -1.83500    39    16    40    38
 C     2.30930  -2.30260  -2.79920    40    42    39    31
 C    -0.07400  -2.74220  -2.97380    41    96    43    42
 C     1.09940  -1.96250  -3.34170    42    40    33    41
 C     0.03670  -3.72910  -1.90960    43    91    38    41
 C     4.90640   0.89710   0.18270    44    46     3    30
 C     3.82210   2.74610  -0.72140    45    47    46    28
 C     4.39020   2.13040   0.37670    46    44    56    45
 C     2.80120   3.64360  -0.60060    47    45    48    50
 C     2.27920   3.97080   0.62540    48    49    57    47
 C     0.97990   4.32880   0.65430    49    48    58    55
 C     1.97760   3.55710  -1.71370    50    36    54    47
 C    -0.60240   1.22700  -3.75350    51    74    52    37
 C     0.28450   2.19030  -3.35780    52    51    35    53
 C    -0.27300   3.26510  -2.56040    53    54    52    73
 C     0.64590   3.91130  -1.70050    54    50    55    53
 C     0.19000   4.37720  -0.47960    55    68    49    54
 C     3.74770   2.36350   1.57530    56    57    46     1
 C     2.73360   3.25200   1.70090    57    56    48    60
 C     0.14550   4.01950   1.70460    58    64    49    59
 C     0.55040   3.16590   2.73380    59    60    58    62
 C     1.86400   2.81340   2.68280    60    59     6    57
 C    -1.76260   2.49940   2.93280    61    63    62    66
 C    -0.40050   2.29020   3.30910    62    59    61     7
 C    -2.64580   1.46210   3.10240    63    61    12    77
 C    -1.12560   4.07380   1.26720    64    58    66    68
 C    -3.22110   3.15470   1.09360    65    76    66    72
 C    -2.12210   3.41110   1.88870    66    64    65    61
 C    -2.07900   3.80310  -0.95140    67    68    72    73
 C    -1.10410   4.27990  -0.11420    68    55    67    64
 C    -4.20340   0.52600  -2.18420    69    88    82    70
 C    -3.75330   1.84170  -2.05360    70    71    69    75
 C    -4.04340   2.38750  -0.82460    71    72    70    84
 C    -3.19700   3.31930  -0.29390    72    71    67    65
 C    -1.69150   3.25420  -2.21360    73    75    67    53
 C    -1.94170   1.27580  -3.49460    74    86    51    75
 C    -2.56260   2.25130  -2.72870    75    74    73    70
 C    -4.07810   2.14220   1.35150    76    77    65    84
 C    -3.80380   1.30770   2.37180    77    76    79    63
 C    -4.79740  -0.52180   1.19120    78    80    79    83
 C    -4.14390   0.00320   2.30680    79    77    98    78
 C    -4.46040  -1.83890   0.94770    80   100    78    85
 C    -4.45620  -1.50910  -1.37720    81    85    87    82
 C    -4.82460  -0.19650  -1.18060    82    81    69    83
 C    -5.02360   0.33830   0.08490    83    84    82    78
 C    -4.64190   1.66180   0.20070    84    76    83    71
 C    -4.30220  -2.32580  -0.33650    85    81    93    80
 C    -2.39940  -0.00790  -3.55660    86    88    74    97
 C    -3.59670  -1.64180  -2.43590    87    88    81    95
 C    -3.50140  -0.38130  -2.92940    88    86    87    69
 C    -1.77840  -3.89270   1.20190    89    92    90    26
 C    -0.90460  -4.26120   0.22590    90    21    89    91
 C    -1.13880  -4.00980  -1.14180    91    90    94    43
 C    -2.97290  -3.44110   0.92150    92    89   100    93
 C    -3.33570  -3.28630  -0.38320    93    92    85    94
 C    -2.41250  -3.47370  -1.44590    94    95    91    93
 C    -2.53420  -2.57290  -2.52270    95    94    87    96
 C    -1.35600  -2.18430  -3.22660    96    97    41    95
 C    -1.36210  -0.87820  -3.73610    97    86    37    96
 C    -3.18790  -0.67970   3.04810    98    99    12    79
 C    -2.85980  -1.97170   2.80080    99    98   100    25
 C    -3.57250  -2.53510   1.73590   100    92    80    99
