   100
C100-C1-217                                                                     
 C    -1.94140   2.69360  -2.81860     1     2     6    61
 C    -2.79240   2.98860  -1.81040     2     1     3     9
 C    -3.82330   2.06970  -1.67810     3     4     2    60
 C    -4.44010   1.89020  -0.49630     4     3     5    21
 C    -3.99160   2.54630   0.59380     5     4    22    10
 C    -0.66920   3.16080  -2.83020     6     1    67     7
 C    -0.06730   3.88050  -1.77680     7     6    17     8
 C    -0.87480   4.08660  -0.61120     8     7     9    12
 C    -2.25830   3.68680  -0.67640     9    10     2     8
 C    -2.91260   3.38940   0.51370    10     5    14     9
 C     1.23070   4.05190   0.70670    11    15    16    12
 C    -0.20020   4.12590   0.67980    12    11     8    13
 C    -0.93370   3.66460   1.85380    13    14    28    12
 C    -2.25580   3.32510   1.72310    14    13    10    23
 C     1.81470   3.53470   1.87500    15    27    98    11
 C     2.00570   3.90380  -0.48440    16    17    18    11
 C     1.34650   3.78160  -1.71970    17    16    74     7
 C     3.25740   3.24250  -0.36030    18    97    79    16
 C    -4.82090  -0.00570   0.79930    19    33    21    20
 C    -4.38090   0.65040   1.90510    20    22    19    24
 C    -4.83940   0.59120  -0.41040    21    19     4    41
 C    -3.96570   1.92750   1.79790    22    20    23     5
 C    -2.90240   2.36350   2.50700    23    22    26    14
 C    -3.70570  -0.21650   2.70820    24    20    34    25
 C    -2.62290   0.15540   3.49460    25    24    36    26
 C    -2.22220   1.55040   3.40890    26    29    23    25
 C     1.08710   3.01930   2.90990    27    15    91    28
 C    -0.28570   3.02560   2.95090    28    27    13    29
 C    -0.91560   1.93780   3.66770    29    26    30    28
 C    -0.07950   0.92440   4.12410    30    92    35    29
 C    -3.28170  -3.07330   0.01190    31    42    32    39
 C    -4.12610  -2.03930  -0.24290    32    31    33    40
 C    -4.44680  -1.29760   0.88930    33    19    32    34
 C    -3.78120  -1.45750   2.11350    34    38    24    33
 C    -0.41310  -0.41520   4.13030    35    36    30    50
 C    -1.66080  -0.86430   3.77090    36    35    25    37
 C    -1.71970  -2.18110   3.18560    37    38    36    52
 C    -2.82950  -2.42470   2.32080    38    34    39    37
 C    -2.67920  -3.28890   1.25960    39    54    38    31
 C    -4.05800  -1.41650  -1.53620    40    41    32    44
 C    -4.43860  -0.07650  -1.53790    41    60    21    40
 C    -2.46310  -3.58720  -0.93900    42    31    46    43
 C    -2.31980  -2.99790  -2.19490    43    45    42    44
 C    -3.07810  -1.84270  -2.50740    44    43    40    58
 C    -1.06150  -3.17070  -2.74240    45    56    49    43
 C    -1.43010  -4.22430  -0.28750    46    48    42    54
 C     0.85470  -4.43120  -0.05760    47    48    68    55
 C    -0.22710  -4.41400  -0.87810    48    46    47    49
 C    -0.05270  -3.87830  -2.12330    49    48    70    45
 C     0.75920  -1.14010   3.97160    50    51    95    35
 C     0.79420  -2.38380   3.38330    51    50    87    52
 C    -0.48280  -2.93490   2.97920    52    53    51    37
 C    -0.44770  -3.87610   1.90870    53    55    54    52
 C    -1.54270  -3.98850   1.07190    54    39    53    46
 C     0.75790  -4.16790   1.30620    55    88    53    47
 C    -0.46170  -2.24450  -3.55410    56    45    57    71
 C    -1.11570  -1.08020  -3.89920    57    56    63    58
 C    -2.46370  -0.86140  -3.39780    58    59    57    44
 C    -2.88550   0.48980  -3.26800    59    60    61    58
 C    -3.84800   0.84560  -2.36100    60    59    41     3
 C    -1.98790   1.49170  -3.54470    61    64    59     1
 C     1.21620  -0.15350  -4.08070    62    65    73    63
 C    -0.22020  -0.01800  -4.20940    63    64    57    62
 C    -0.74140   1.25530  -4.01260    64    61    67    63
 C     1.92960   1.00470  -3.79190    65    85    66    62
 C     1.31430   2.20980  -3.56540    66    67    74    65
 C     0.01990   2.32100  -3.65830    67    66    64     6
 C     2.07980  -4.00000  -0.49590    68    80    47    69
 C     2.29050  -3.43590  -1.76250    69    70    68    83
 C     1.16100  -3.38790  -2.54380    70    71    69    49
 C     0.92560  -2.37510  -3.43140    71    70    73    56
 C     3.06790  -1.35680  -2.85320    72    83    84    73
 C     1.83200  -1.34660  -3.62790    73    71    62    72
 C     1.99450   2.95760  -2.67400    74    66    75    17
 C     3.14160   2.26650  -2.46160    75    79    74    85
 C     4.54390  -0.90620  -0.46580    76    82    77    99
 C     4.45500   0.11590  -1.37730    77    76    78    84
 C     4.46450   1.37680  -0.77540    78    79    96    77
 C     3.78360   2.42130  -1.32510    79    75    78    18
 C     2.75100  -3.58330   0.60080    80    81    68    88
 C     3.70270  -2.67830   0.47800    81    80    89    82
 C     3.99860  -2.12290  -0.74570    82    76    81    83
 C     3.26540  -2.42100  -1.90580    83    82    69    72
 C     3.71100  -0.09950  -2.57740    84    85    77    72
 C     3.10190   1.03500  -3.09550    85    65    75    84
 C     3.12540  -1.75440   2.64630    86    89    94    87
 C     2.03620  -2.70340   2.73800    87    88    51    86
 C     1.93820  -3.62180   1.70630    88    55    80    87
 C     3.93590  -1.79890   1.49430    89    81    99    86
 C     3.02820   1.89650   2.84350    90    91    98    93
 C     1.85160   2.03560   3.48320    91    92    90    27
 C     1.26670   0.98250   4.02940    92    91    30    95
 C     3.68700   0.66230   2.67920    93    90   100    94
 C     3.01710  -0.48080   3.24260    94    95    86    93
 C     1.82000  -0.25630   3.91510    95    92    50    94
 C     4.45270   1.58630   0.58790    96    97    78   100
 C     3.74290   2.74060   0.80160    97    98    18    96
 C     3.03700   2.88730   1.90110    98    97    90    15
 C     4.53480  -0.70540   0.92530    99   100    89    76
 C     4.44420   0.53310   1.49520   100    99    96    93
