   100
C100-C1-374                                                                     
 C    -3.56720  -2.66000  -1.24770     1    66     2     4
 C    -4.34790  -1.93410  -0.33520     2     3    44     1
 C    -4.76320  -0.65920  -0.54350     3     6     2    28
 C    -3.12340  -1.95980  -2.42550     4     5     8     1
 C    -3.57040  -0.65610  -2.56570     5     6    12     4
 C    -4.39730  -0.02880  -1.67180     6     3    20     5
 C    -1.19070  -3.33820  -2.49100     7    16     8    65
 C    -1.87180  -2.25580  -3.03040     8     7     4    10
 C     0.35630  -1.45390  -3.75130     9    13    14    10
 C    -1.06770  -1.24580  -3.68270    10     9     8    11
 C    -1.56970   0.11190  -3.71530    11    12    23    10
 C    -2.81810   0.33290  -3.17000    12    11     5    21
 C     1.14020  -0.32870  -3.87280    13     9    99    22
 C     1.01770  -2.57660  -3.18450    14    16     9    15
 C     2.37610  -2.49710  -2.68600    15    17    98    14
 C     0.17290  -3.49050  -2.57760    16    72     7    14
 C     2.70010  -3.30530  -1.59650    17    71    82    15
 C    -3.47090   3.14900  -0.49170    18    29    19    26
 C    -4.31380   2.06490  -0.52850    19    18    20    27
 C    -4.16840   1.30600  -1.68120    20     6    21    19
 C    -3.19420   1.55340  -2.63750    21    25    12    20
 C     0.63500   0.96490  -3.86460    22    35    23    13
 C    -0.70160   1.25400  -3.75030    23    22    11    24
 C    -1.03430   2.52840  -3.14550    24    25    23    37
 C    -2.33120   2.62850  -2.57900    25    21    26    24
 C    -2.54330   3.44910  -1.48250    26    39    25    18
 C    -4.59850   1.39130   0.68460    27    28    31    19
 C    -4.81810   0.03730   0.64020    28    27     3    43
 C    -2.92770   3.59020   0.67790    29    30    32    18
 C    -3.11050   2.88520   1.80700    30    29    31    60
 C    -3.91480   1.80530   1.82150    31    30    41    27
 C    -1.74880   4.19250   0.44230    32    29    33    39
 C    -0.72410   4.16880   1.37190    33    34    32    59
 C     0.50210   4.36810   0.82800    34    61    33    40
 C     1.63180   1.80590  -3.44690    35    92    22    36
 C     1.40100   3.00770  -2.79020    36    35    95    37
 C     0.03190   3.37500  -2.61750    37    36    38    24
 C    -0.25810   4.17040  -1.46540    38    39    40    37
 C    -1.51370   4.14960  -0.92890    39    26    38    32
 C     0.74820   4.41150  -0.54650    40    96    38    34
 C    -3.37630   0.92850   2.75180    41    42    46    31
 C    -3.56270  -0.41740   2.68250    42    41    43    49
 C    -4.36980  -0.83380   1.61320    43    44    28    42
 C    -4.17330  -2.03770   1.02390    44    45    43     2
 C    -3.27330  -2.86720   1.52160    45    44    67    50
 C    -2.20760   1.47360   3.25580    46    60    41    47
 C    -1.12780   0.72040   3.72900    47    46    57    48
 C    -1.28170  -0.72180   3.69270    48    49    52    47
 C    -2.51940  -1.25210   3.16530    49    50    42    48
 C    -2.46280  -2.51250   2.57690    50    54    45    49
 C     1.17240  -0.89840   3.74000    51    55    52    56
 C    -0.09150  -1.55040   3.65280    52    51    48    53
 C    -0.12750  -2.86900   3.01790    53    54    74    52
 C    -1.33370  -3.26550   2.47960    54    50    53    68
 C     2.28030  -1.60880   3.23920    55    73    85    51
 C     1.29440   0.53380   3.76990    56    58    57    51
 C     0.14950   1.37720   3.70700    57    56    47    63
 C     2.50770   1.06900   3.30380    58    64    84    56
 C    -0.84290   3.34680   2.53580    59    60    63    33
 C    -2.06130   2.72270   2.68240    60    30    59    46
 C     1.62170   3.92500   1.45050    61    34    88    62
 C     1.56060   3.11270   2.58610    62    64    61    63
 C     0.29760   2.71780   3.10820    63    62    59    57
 C     2.64030   2.28960   2.71520    64    58    62    91
 C    -1.61710  -4.00640  -1.34760    65    66    70     7
 C    -2.74680  -3.64620  -0.68080    66    65     1    67
 C    -2.61450  -3.72680   0.71320    67    45    68    66
 C    -1.44110  -4.06600   1.34420    68    69    67    54
 C    -0.34710  -4.51240   0.67500    69    68    75    70
 C    -0.49060  -4.49290  -0.71640    70    72    65    69
 C     1.78710  -4.14050  -1.01490    71    72    76    17
 C     0.56820  -4.25090  -1.51650    72    71    70    16
 C     2.20240  -2.81270   2.59800    73    55    74    78
 C     1.01470  -3.48140   2.42150    74    73    53    75
 C     0.91380  -4.28770   1.23440    75    69    76    74
 C     1.98790  -4.19880   0.33400    76    79    71    75
 C     3.97590  -1.70950   1.74260    77    78    85    80
 C     3.25180  -2.84610   1.69430    78    79    77    73
 C     3.11190  -3.48610   0.54290    79    78    76    82
 C     4.57450  -1.09730   0.62090    80    87    77    81
 C     4.30170  -1.72230  -0.64750    81    82    97    80
 C     3.59330  -2.91570  -0.61900    82    17    79    81
 C     4.22150   0.96700   1.83620    83    84    91    87
 C     3.52660   0.30660   2.80470    84    85    83    58
 C     3.41520  -0.99590   2.76660    85    84    77    55
 C     4.65610   1.04430  -0.44770    86    87   100    89
 C     4.72670   0.30180   0.70900    87    86    83    80
 C     2.61650   3.81000   0.49070    88    90    96    61
 C     4.15290   2.34530  -0.47530    89    90    94    86
 C     3.67290   2.96150   0.65550    90    91    88    89
 C     3.69410   2.23100   1.80450    91    90    83    64
 C     2.73670   1.02900  -3.23860    92    93    99    35
 C     3.68230   1.38970  -2.37130    93    92    94   100
 C     3.53200   2.55510  -1.69310    94    93    89    95
 C     2.42520   3.38540  -1.87220    95    96    94    36
 C     2.03620   4.05470  -0.74170    96    40    95    88
 C     4.11270  -0.92420  -1.80490    97   100    81    98
 C     3.12110  -1.31020  -2.79150    98    99    15    97
 C     2.45870  -0.28090  -3.45340    99    92    13    98
 C     4.35070   0.44100  -1.65040   100    93    86    97
