   100
C100-C1-359                                                                     
 C     0.90710   3.41790   2.50800     1    18    65     2
 C    -0.16250   2.75060   3.12130     2     1     3    13
 C    -1.45710   3.09180   2.64900     3     4    66     2
 C    -2.51860   2.18440   2.78960     4     3     5     7
 C    -3.57110   2.28140   1.84650     5     6    47     4
 C    -4.35990   1.24740   1.47730     6     9     5    30
 C    -2.27230   0.90030   3.35450     7     8     4    14
 C    -3.15740  -0.11750   2.95060     8     9    24     7
 C    -4.18080   0.05730   2.04370     9     6    22     8
 C    -0.67010  -0.91270   3.76120    10    11    23    14
 C     0.65980  -1.26260   3.73020    11    39    10    15
 C     1.50100   1.00700   3.60750    12    15    16    13
 C     0.12530   1.46670   3.68330    13     2    12    14
 C    -0.96600   0.50780   3.77740    14     7    10    13
 C     1.70550  -0.35130   3.66720    15    12   100    11
 C     2.56150   1.72310   2.96210    16    18    12    17
 C     3.68670   1.05560   2.33390    17    99    19    16
 C     2.18400   2.94080   2.43120    18     1    76    16
 C     4.22900   1.66940   1.18930    19    75    95    17
 C    -4.29820  -2.12590  -0.68770    20    28    21    31
 C    -4.80230  -1.05640   0.01720    21    20    22    29
 C    -4.42210  -1.09160   1.36340    22     9    25    21
 C    -1.57440  -1.91330   3.25850    23    24    10    26
 C    -2.81560  -1.45240   2.88160    24    23     8    25
 C    -3.60420  -2.05780   1.91340    25    27    22    24
 C    -1.10940  -3.13600   2.63130    26    40    41    23
 C    -3.14970  -3.14080   1.21370    27    25    28    41
 C    -3.54750  -3.13400  -0.12790    28    35    20    27
 C    -4.87340   0.20580  -0.60880    29    30    33    21
 C    -4.69020   1.34200   0.13960    30    29    46     6
 C    -3.79180  -1.95960  -1.96200    31    32    36    20
 C    -3.76560  -0.75110  -2.51080    32    31    33    60
 C    -4.31270   0.31930  -1.88420    33    32    44    29
 C    -1.58090  -4.17820  -0.77050    34    35    56    38
 C    -2.70570  -3.59090  -1.09470    35    34    36    28
 C    -2.77290  -2.81960  -2.21190    36    31    35    58
 C     0.13960  -4.47360   0.50880    37    38    42    90
 C    -1.19890  -4.31250   0.53980    38    37    34    41
 C     1.11570  -2.45760   3.22670    39    92    11    40
 C     0.28880  -3.39570   2.61550    40    39    26    42
 C    -1.91120  -3.70290   1.57750    41    38    27    26
 C     0.92380  -4.11590   1.56510    42    37    43    40
 C     2.23910  -3.86120   1.24260    43    94    42    88
 C    -3.61710   1.42750  -2.32480    44    45    33    49
 C    -3.47650   2.57230  -1.59250    45    44    46    52
 C    -4.07290   2.47920  -0.32420    46    47    30    45
 C    -3.49250   3.08870   0.74170    47    48    46     5
 C    -2.46560   3.88060   0.57030    48    47    66    53
 C    -2.60730   0.99260  -3.17060    49    60    50    44
 C    -1.43340   1.68690  -3.38260    50    49    63    51
 C    -1.27520   2.95800  -2.68930    51    55    52    50
 C    -2.31680   3.35390  -1.77650    52    53    45    51
 C    -1.89140   4.08530  -0.66970    53    69    48    52
 C     1.09050   2.70540  -3.01530    54    72    55    64
 C     0.06040   3.45110  -2.47150    55    54    68    51
 C    -0.48900  -4.07300  -1.58920    56    90    34    57
 C    -0.43640  -3.20580  -2.70660    57    56    58    82
 C    -1.63960  -2.52060  -3.00150    58    36    57    59
 C    -1.58870  -1.21180  -3.55550    59    60    62    58
 C    -2.68680  -0.38040  -3.28080    60    32    49    59
 C     0.87740  -1.34050  -3.65170    61    85    62    82
 C    -0.35440  -0.58280  -3.84530    62    59    61    63
 C    -0.32200   0.88210  -3.79630    63    64    50    62
 C     0.90300   1.47880  -3.63600    64    86    63    54
 C     0.76180   4.24310   1.41050    65    67    70     1
 C    -1.51310   3.96520   1.53390    66    67    48     3
 C    -0.42760   4.44790   0.90550    67    65    66    69
 C     0.42780   4.24340  -1.33510    68    69    71    55
 C    -0.61190   4.47700  -0.46010    69    53    67    68
 C     1.84580   4.20080   0.61220    70    65    76    71
 C     1.75420   4.18330  -0.79760    71    73    70    68
 C     2.38830   2.73910  -2.54480    72    77    73    54
 C     2.76510   3.44890  -1.42410    73    72    71    74
 C     3.77310   2.83670  -0.66980    74    75    80    73
 C     3.74100   2.84050   0.69390    75    76    19    74
 C     2.77000   3.48440   1.30860    76    75    70    18
 C     2.99240   1.55520  -2.89920    77    79    72    86
 C     4.10990  -0.33920  -2.18310    78    79    96    84
 C     4.02600   1.01660  -2.17710    79    78    77    80
 C     4.38810   1.66350  -1.02350    80    74    79    95
 C     1.98760  -3.13400  -2.28830    81    83    89    82
 C     0.83600  -2.66570  -3.03910    82    57    81    61
 C     3.11970  -2.33170  -2.24710    83    84    91    81
 C     3.17890  -1.12510  -2.86780    84    83    85    78
 C     2.09020  -0.60650  -3.54690    85    86    84    61
 C     2.06450   0.77130  -3.55510    86    64    85    77
 C     3.75430  -2.97010  -0.08220    87    91    88    93
 C     2.69690  -3.82630  -0.06790    88    87    43    89
 C     1.83190  -3.97170  -1.14740    89    90    88    81
 C     0.58560  -4.36860  -0.81490    90    89    56    37
 C     3.99920  -2.26570  -1.18290    91    87    96    83
 C     2.43080  -2.26880   2.90370    92    94   100    39
 C     3.95320  -2.40470   1.15280    93    94    87    98
 C     3.00820  -2.97830   1.93200    94    92    93    43
 C     4.72360   0.94450   0.12390    95    97    19    80
 C     4.56130  -1.03950  -1.08740    96    91    78    97
 C     4.81600  -0.42250   0.14990    97    95    96    98
 C     4.41850  -1.09450   1.32830    98    93    97    99
 C     3.81300  -0.34350   2.39980    99   100    17    98
 C     2.81420  -0.98390   3.13260   100    92    15    99
