   100
C100-C1-243                                                                     
 C    -2.56200   1.25320  -3.35220     1     9     2    68
 C    -2.27940   2.48480  -2.79520     2     1    66     3
 C    -0.92640   2.93780  -2.92560     3     4     2    13
 C    -0.49190   3.86010  -1.93690     4     6     5     3
 C    -1.29800   4.12390  -0.83070     5    67     4    16
 C     0.83000   4.02370  -1.70040     6     4     7    14
 C     1.79110   3.30830  -2.37250     7    27     6     8
 C     1.47950   2.26330  -3.26290     8     7    13    28
 C    -1.62000   0.46610  -3.94390     9     1    72    12
 C     0.10910  -1.57970  -3.97040    10    95    73    11
 C     0.66620  -0.29730  -4.08320    11    10    30    12
 C    -0.26710   0.80520  -4.05780    12     9    13    11
 C     0.09690   2.09120  -3.57700    13    12     8     3
 C     1.33610   4.35550  -0.43790    14    20    15     6
 C     0.54660   4.37460   0.70410    15    16    14    23
 C    -0.78240   4.31030   0.45190    16    15    17     5
 C    -1.67970   3.81640   1.35550    17    16    47    19
 C     0.14350   3.16470   2.81930    18    23    24    19
 C    -1.28570   3.21820   2.55810    19    17    32    18
 C     2.60870   3.93880  -0.40490    20    14    21    27
 C     3.13210   3.47300   0.74850    21    20    92    22
 C     2.35370   3.35990   1.86470    22    21    40    23
 C     1.03980   3.80860   1.91660    23    22    18    15
 C     0.66650   2.03630   3.57100    24    25    41    18
 C    -0.26620   1.13700   4.03480    25    31    24    44
 C     3.76040   2.32310  -1.63120    26    27    29    91
 C     2.90020   3.33250  -1.59050    27    26     7    20
 C     2.42180   1.15560  -3.30160    28    29    30     8
 C     3.53880   1.26070  -2.44790    29    26   100    28
 C     2.01440  -0.16880  -3.64470    30    11    28    97
 C    -1.61880   1.25240   3.80970    31    34    25    32
 C    -2.20010   2.25060   3.04750    32    31    19    33
 C    -3.40290   1.90140   2.34290    33    46    36    32
 C    -2.12640  -0.01660   3.87140    34    35    37    31
 C    -3.19820  -0.36180   3.17250    35    34    36    59
 C    -3.84550   0.56670   2.44770    36    35    48    33
 C    -1.15220  -0.91240   4.08930    37    34    44    38
 C    -1.21810  -2.20110   3.57800    38    39    37    58
 C     0.00600  -2.75410   3.39970    39    60    38    45
 C     2.80570   2.23090   2.53250    40    41    84    22
 C     1.99710   1.50740   3.37490    41    40    24    42
 C     2.30850   0.09760   3.52290    42    43    41    86
 C     1.25680  -0.73580   3.97520    43    44    45    42
 C     0.02560  -0.19590   4.23660    44    43    25    37
 C     1.20310  -2.06740   3.61610    45    89    43    39
 C    -3.69030   2.51620   1.11660    46    47    50    33
 C    -2.80880   3.45260   0.65000    47    46    17    67
 C    -4.42700  -0.12910   1.42860    48    49    36    51
 C    -4.68090   0.47300   0.28430    49    48    57    50
 C    -4.33900   1.79540   0.11670    50    49    65    46
 C    -4.02030  -1.45300   1.44980    51    59    48    55
 C    -2.24920  -3.67470  -0.87030    52    53    70    54
 C    -0.98490  -4.28310  -0.80540    53    63    76    52
 C    -2.85430  -3.26910   0.36970    54    55    52    62
 C    -3.83830  -2.22480   0.28960    55    51    56    54
 C    -4.15010  -1.56810  -0.94930    56    69    57    55
 C    -4.57240  -0.21530  -0.87790    57    49    64    56
 C    -2.29190  -2.57240   2.71380    58    59    38    62
 C    -3.27200  -1.61210   2.58080    59    51    58    35
 C     0.20970  -3.70800   2.46020    60    39    80    61
 C    -0.79490  -4.07940   1.55710    61    63    60    62
 C    -2.08220  -3.47110   1.61300    62    61    58    54
 C    -0.28220  -4.48890   0.34630    63    53    61    83
 C    -4.25300   0.74680  -1.79910    64    68    65    57
 C    -4.06250   1.96290  -1.22210    65    64    50    66
 C    -3.10290   2.85200  -1.68820    66    67    65     2
 C    -2.54590   3.62420  -0.70810    67     5    66    47
 C    -3.53790   0.40580  -2.85290    68    64    71     1
 C    -3.46080  -1.92770  -2.12550    69    70    56    71
 C    -2.53280  -2.98540  -2.09620    70    69    74    52
 C    -3.19490  -0.88490  -3.05030    71    68    72    69
 C    -2.07170  -0.81890  -3.80760    72    73    71     9
 C    -1.23310  -1.80940  -3.80370    73    72    74    10
 C    -1.46880  -2.90360  -3.02820    74    77    73    70
 C     1.22110  -4.22960  -1.28750    75    76    83    79
 C    -0.02820  -4.17330  -1.79630    76    77    75    53
 C    -0.25130  -3.44150  -2.86560    77    76    74    95
 C     3.21050  -3.10770  -0.89810    78    98    79    81
 C     2.27290  -3.47510  -1.82990    79    78    75    96
 C     1.56090  -3.67830   2.15380    80    82    60    89
 C     3.09330  -3.38380   0.45300    81    82    87    78
 C     2.01470  -4.07090   0.93760    82    80    83    81
 C     1.08040  -4.49350   0.04950    83    82    75    63
 C     3.83590   1.66160   1.79930    84    92    40    85
 C     4.09560   0.29790   1.79800    85    84    86    94
 C     3.35690  -0.51850   2.70580    86    85    88    42
 C     3.70300  -2.36190   1.15190    87    93    81    88
 C     3.23230  -1.90480   2.38130    88    89    87    86
 C     2.15820  -2.63450   2.84820    89    45    88    80
 C     4.59070   0.59500  -0.57520    90    91    94   100
 C     4.36660   1.91300  -0.48250    91    90    92    26
 C     4.02420   2.45850   0.70250    92    91    21    84
 C     4.27510  -1.53010   0.23870    93    94    87    98
 C     4.54240  -0.23380   0.53860    94    93    90    85
 C     0.74130  -2.64820  -3.41220    95    10    96    77
 C     2.02140  -2.58430  -2.91460    96    95    79    97
 C     2.70750  -1.33280  -3.05220    97    99    96    30
 C     3.93060  -1.96800  -1.04480    98    78    99    93
 C     3.74230  -1.08990  -2.10710    99   100    98    97
 C     4.13470   0.18110  -1.83890   100    99    29    90
