    24
C24-D6d                                                                         
 C     1.14300  -2.00480   0.34000     1     2     3    10
 C    -0.01940  -2.33110  -0.32930     2     1    17     4
 C     1.99990  -1.14140  -0.32750     3     6     1     5
 C     0.00350  -1.38660  -1.36270     4     5     2    22
 C     1.20520  -0.68140  -1.37640     5     4     3     8
 C     2.31790   0.01540   0.34490     6     3     7     9
 C     2.00400   1.17560  -0.33580     7    15     6     8
 C     1.20540   0.71470  -1.39810     8     5    24     7
 C     1.39740  -0.01100   1.39600     9    10     6    12
 C     0.69180  -1.21380   1.39820    10    11     9     1
 C    -0.70150  -1.23720   1.38370    11    10    14    17
 C     0.71290   1.20850   1.37870    12    13    15     9
 C    -0.68160   1.18370   1.38350    13    14    12    20
 C    -1.38590  -0.01880   1.37160    14    18    13    11
 C     1.15770   2.02920   0.34180    15     7    21    12
 C    -2.01520  -1.18420  -0.33210    16    17    18    22
 C    -1.18900  -2.04460   0.35090    17    16     2    11
 C    -2.31220  -0.00100   0.33440    18    19    16    14
 C    -1.99290   1.16280  -0.33550    19    18    20    23
 C    -1.12980   2.00480   0.34150    20    19    21    13
 C     0.01080   2.32710  -0.37200    21    15    20    24
 C    -1.21030  -0.68840  -1.36860    22    23     4    16
 C    -1.20630   0.70850  -1.40110    23    24    22    19
 C    -0.00430   1.41660  -1.42690    24    21    23     8
