    82
C82-C2v-9                                                                       
 C     3.72360   1.16090  -1.16960     1     2     7    49
 C     3.63000   1.89750   0.00190     2     3     1     4
 C     2.78480   2.99610   0.00400     3     2    10    48
 C     3.70080   1.16440   1.17880     4     5     2     8
 C     3.87180  -0.21270   1.17550     5    13     4     6
 C     3.97300  -0.96920   0.00170     6     7     5    18
 C     3.89480  -0.21730  -1.17340     7    54     1     6
 C     2.94150   1.50770   2.29600     8     9    14     4
 C     2.09570   2.59750   2.28140     9     8    11    10
 C     2.03800   3.35300   1.11790    10    22     3     9
 C     0.91370   2.44340   2.99130    11    20     9    16
 C     2.70050  -1.92310   2.29230    12    13    28    19
 C     3.23280  -0.68580   2.29500    13    12    14     5
 C     2.62030   0.33570   2.97360    14    13     8    15
 C     1.40480   0.14400   3.65300    15    16    14    29
 C     0.57440   1.26030   3.64830    16    32    15    11
 C     2.80000  -2.73520  -1.16020    17    53    80    18
 C     3.40780  -2.27600   0.01420    18    19    17     6
 C     2.78850  -2.73490   1.17940    19    12    82    18
 C    -0.25600   3.05820   2.56930    20    24    11    21
 C    -0.31080   3.82000   1.40590    21    22    23    20
 C     0.86340   3.93950   0.68190    22    10    21    36
 C    -1.48840   3.73540   0.67600    23    27    34    21
 C    -1.31140   2.26030   2.98320    24    26    20    32
 C    -3.16310   1.00380   2.26740    25    26    33    42
 C    -2.49480   2.21530   2.26260    26    25    24    27
 C    -2.56270   2.96550   1.09670    27    23    44    26
 C     1.52420  -2.15600   2.97440    28    77    12    29
 C     0.79750  -1.14460   3.65450    29    28    15    30
 C    -0.63420  -1.26290   3.64850    30    79    31    29
 C    -1.44000  -0.08500   3.64220    31    32    33    30
 C    -0.79950   1.14770   3.64830    32    16    31    24
 C    -2.66320  -0.10080   2.94960    33    73    25    31
 C    -1.49100   3.73170  -0.71140    34    38    23    35
 C    -0.30470   3.80670  -1.43130    35    36    34    37
 C     0.87370   3.93090  -0.70560    36    48    22    35
 C    -0.23460   3.03940  -2.58910    37    46    41    35
 C    -2.56230   2.96550  -1.13870    38    34    40    44
 C    -3.15790   0.99780  -2.29550    39    40    60    45
 C    -2.48600   2.20760  -2.29950    40    39    41    38
 C    -1.29520   2.24900  -3.00650    41    40    37    59
 C    -3.87530   0.55000   1.15690    42    43    74    25
 C    -3.90790   1.28970  -0.01760    43    44    42    45
 C    -3.24560   2.50480  -0.01990    44    43    27    38
 C    -3.87180   0.54130  -1.18760    45    76    43    39
 C     0.93680   2.42790  -3.00100    46    37    47    50
 C     2.11540   2.58310  -2.28510    47    49    48    46
 C     2.05650   3.34460  -1.12750    48    36    47     3
 C     2.95920   1.48860  -2.29120    49    47    52     1
 C     0.59820   1.24290  -3.65430    50    59    51    46
 C     1.43480   0.13090  -3.64580    51    50    52    57
 C     2.64940   0.31400  -2.96330    52    54    49    51
 C     2.72450  -1.93570  -2.28860    53    54    58    17
 C     3.26770  -0.70740  -2.29250    54    53    52     7
 C    -1.16000  -2.37930  -2.96420    55    63    71    56
 C    -0.60560  -1.26970  -3.64800    56    55    61    57
 C     0.82700  -1.16090  -3.64260    57    58    51    56
 C     1.54140  -2.17470  -2.95590    58    64    53    57
 C    -0.77690   1.13260  -3.66110    59    50    61    41
 C    -2.64840  -0.10690  -2.97370    60    67    39    61
 C    -1.41880  -0.09850  -3.65280    61    59    60    56
 C    -1.07060  -3.75460  -1.15980    62    63    70    66
 C    -0.39980  -3.30250  -2.28170    63    64    55    62
 C     0.93980  -3.20330  -2.27550    64    63    58    80
 C    -1.06950  -3.74410   1.17000    65    78    68    66
 C    -0.37590  -4.08670   0.00480    66    62    65    81
 C    -3.10100  -1.20920  -2.29000    67    71    60    76
 C    -2.31760  -3.12920   1.16760    68    72    65    69
 C    -3.00540  -2.78820  -0.00250    69    70    68    75
 C    -2.31340  -3.13510  -1.16760    70    71    62    69
 C    -2.36000  -2.33550  -2.28750    71    67    70    55
 C    -2.37720  -2.32900   2.29180    72    73    79    68
 C    -3.11650  -1.20530   2.27700    73    72    33    74
 C    -3.82980  -0.83970   1.16020    74    73    42    75
 C    -3.79110  -1.60290  -0.01200    75    76    74    69
 C    -3.82820  -0.84350  -1.18240    76    67    45    75
 C     0.93150  -3.19600   2.29250    77    78    28    82
 C    -0.41060  -3.29430   2.29600    78    77    79    65
 C    -1.17560  -2.37810   2.96670    79    78    72    30
 C     1.66970  -3.54790  -1.15740    80    64    17    81
 C     1.04110  -3.98310   0.01270    81    82    80    66
 C     1.66700  -3.54980   1.17960    82    77    19    81
