    82
C82-C3v-8                                                                       
 C    -0.37910   3.94330  -0.29540     1     2     7    49
 C    -1.46850   3.57900  -1.06230     2     1     4     3
 C    -2.57880   3.10840  -0.37250     3    48    10     2
 C    -1.18130   3.01190  -2.29100     4     2     8     5
 C     0.12200   2.79970  -2.73550     5    20     6     4
 C     1.23300   3.16610  -1.98080     6     5     7    17
 C     0.92150   3.76980  -0.74810     7    54     1     6
 C    -1.98700   2.01980  -2.82320     8    12     4     9
 C    -3.10540   1.54630  -2.14070     9    10    11     8
 C    -3.38070   2.10760  -0.90220    10     9     3    24
 C    -3.37700   0.19000  -2.28040    11    22    15     9
 C    -1.18940   1.20430  -3.60550    12     8    14    20
 C    -0.38410  -0.98020  -3.84690    13    14    21    30
 C    -1.47730  -0.14170  -3.74430    14    13    12    15
 C    -2.58080  -0.63320  -3.06520    15    32    14    11
 C     3.22030   2.32580  -0.91750    16    80    53    17
 C     2.41650   2.37570  -2.09130    17    16     6    18
 C     2.41500   1.21000  -2.94380    18    82    19    17
 C     1.23390   0.86140  -3.65910    19    20    21    18
 C     0.12100   1.68650  -3.55130    20     5    19    12
 C     0.91740  -0.49820  -3.83050    21    76    13    19
 C    -3.88170  -0.56320  -1.22910    22    11    23    26
 C    -4.13860   0.00320   0.01320    23    24    22    25
 C    -3.88370   1.36100   0.15470    24    10    36    23
 C    -3.87280  -0.79260   1.12260    25    34    29    23
 C    -3.37390  -1.85020  -1.36750    26    32    28    22
 C    -1.98090  -3.45730  -0.33670    27    42    33    28
 C    -3.10280  -2.63200  -0.25220    28    29    26    27
 C    -3.37130  -2.08230   0.99320    29    44    28    25
 C    -0.37640  -2.25200  -3.27550    30    31    77    13
 C    -1.47070  -2.72590  -2.57620    31    30    33    32
 C    -2.58050  -1.89850  -2.50090    32    26    15    31
 C    -1.17990  -3.50330  -1.46830    33    31    27    79
 C    -3.37700  -0.25770   2.30390    34    25    38    35
 C    -3.10900   1.09970   2.42740    35    36    34    37
 C    -3.38370   1.90380   1.33090    36    48    35    24
 C    -1.98010   1.42880   3.17860    37    41    46    35
 C    -2.57330  -1.21970   2.90180    38    40    34    44
 C    -0.36960  -1.71740   3.57680    39    40    60    45
 C    -1.45890  -0.86940   3.65130    40    39    41    38
 C    -1.17050   0.47810   3.77580    41    40    37    59
 C    -1.17870  -3.72180   0.76020    42    27    43    69
 C    -1.46590  -3.17580   2.00220    43    45    44    42
 C    -2.57470  -2.35090   2.09350    44    29    43    38
 C    -0.36510  -2.85330   2.76920    45    43    74    39
 C    -1.17310   2.51000   2.85070    46    47    37    50
 C    -1.47110   3.31670   1.76130    47    49    48    46
 C    -2.58480   2.98720   1.00950    48    47    36     3
 C    -0.37170   3.81500   1.09190    49    47    52     1
 C     0.13510   2.21330   3.23910    50    59    51    46
 C     1.24590   2.72210   2.57000    51    50    52    57
 C     0.92990   3.55870   1.48590    52    54    49    51
 C     2.83680   2.90010   0.28500    53    54    16    58
 C     1.70910   3.60300   0.36040    54    53    52     7
 C     3.22380  -0.36730   2.45640    55    63    68    56
 C     2.42130   0.61030   3.10320    56    55    61    57
 C     2.42880   1.92550   2.50400    57    58    51    56
 C     3.23230   2.09640   1.34540    58    64    53    57
 C     0.13700   0.95960   3.81420    59    50    61    41
 C     0.93170  -1.23860   3.64620    60    66    39    61
 C     1.24690   0.12760   3.74600    61    59    60    56
 C     3.97390  -1.24360   0.53790    62    65    67    63
 C     3.98000  -0.12350   1.34410    63    64    55    62
 C     3.98430   1.10520   0.78330    64    63    58    80
 C     3.96710  -1.11350  -0.80850    65    62    70    81
 C     1.70400  -2.11500   2.93060    66    68    60    74
 C     3.21890  -2.21860   1.13100    67    62    68    72
 C     2.83120  -1.69380   2.34840    68    66    67    55
 C     0.12860  -3.91300   0.29900    69    79    73    42
 C     3.21370  -1.95370  -1.57740    70    65    75    71
 C     2.42210  -3.00030  -1.03290    71    70    78    72
 C     2.42090  -3.14240   0.40370    72    67    73    71
 C     1.24450  -3.59460   1.07010    73    69    74    72
 C     0.93060  -3.07910   2.33830    74    66    45    73
 C     2.82710  -1.19280  -2.66900    75    76    82    70
 C     1.69440  -1.49900  -3.30740    76    75    77    21
 C     0.92350  -2.55880  -2.90630    77    76    30    78
 C     1.24040  -3.31930  -1.76510    78    79    77    71
 C     0.12840  -3.78450  -1.07540    79    69    78    33
 C     3.98410   1.23870  -0.58490    80    81    16    64
 C     3.97540   0.14410  -1.37850    81    80    82    65
 C     3.22380   0.12570  -2.51370    82    81    75    18
