    82
C82-C3v-7                                                                       
 C    -0.76560  -3.90710   1.17180     1     3     7     2
 C    -1.15300  -3.21690   2.29780     2     4    16     1
 C    -1.53900  -3.88550   0.05740     3     1    25    47
 C    -2.30530  -2.52470   2.29320     4     2     5    48
 C    -2.36020  -1.31100   2.92400     5     4    54    14
 C     2.17800  -2.56590   2.18370     6     8    21    10
 C     0.59520  -3.86550   1.06250     7     1     8    23
 C     1.01890  -3.20160   2.19710     8     6    16     7
 C     3.33080  -0.73660   2.27160     9    11    10    27
 C     2.31230  -1.39230   2.90430    10     9     6    19
 C     3.35680   0.61010   2.27380    11     9    20    78
 C    -2.30900   1.40020   2.91980    12    80    53    13
 C    -1.22260   0.73240   3.56960    13    14    12    17
 C    -1.24570  -0.69730   3.57290    14     5    13    15
 C    -0.01860  -1.44050   3.56970    15    16    19    14
 C    -0.04750  -2.70730   2.92100    16     2     8    15
 C     0.03270   1.43540   3.56490    17    82    18    13
 C     1.25340   0.69020   3.56230    18    20    17    19
 C     1.22800  -0.74110   3.56490    19    10    15    18
 C     2.35890   1.30610   2.89990    20    11    76    18
 C     2.97330  -2.56600   1.05340    21    27     6    22
 C     2.53520  -3.11050  -0.18080    22    21    23    30
 C     1.27790  -3.80150  -0.18130    23     7    24    22
 C     0.43710  -3.75730  -1.33790    24    26    25    23
 C    -0.96170  -3.78840  -1.17420    25     3    34    24
 C     0.87200  -3.00170  -2.41800    26    31    24    32
 C     3.73140  -1.43490   1.15440    27    28    21     9
 C     4.11640  -0.76060   0.04440    28    27    29    79
 C     3.71710  -1.19990  -1.18320    29    28    40    30
 C     2.94410  -2.37070  -1.34090    30    31    29    22
 C     2.07910  -2.33210  -2.42700    31    26    30    42
 C    -0.01510  -2.28590  -3.22690    32    36    33    26
 C    -1.38280  -2.26610  -2.99070    33    34    35    32
 C    -1.84300  -3.03720  -1.95480    34    33    25    46
 C    -2.03940  -1.07020  -3.22670    35    39    33    44
 C     0.65300  -1.18070  -3.71650    36    42    32    38
 C     0.69420   1.17140  -3.71210    37    43    58    38
 C    -0.01860   0.00730  -3.97590    38    39    36    37
 C    -1.37960   0.03720  -3.71590    39    60    35    38
 C     3.54620  -0.05430  -1.96720    40    41    29    69
 C     2.65020  -0.03650  -3.00620    41    40    43    42
 C     1.94930  -1.20740  -3.24230    42    36    41    31
 C     1.98810   1.15780  -3.23230    43    37    41    72
 C    -3.08270  -0.63230  -2.40560    44    55    45    35
 C    -3.53420  -1.37190  -1.31810    45    44    46    50
 C    -2.91190  -2.62500  -1.15500    46    47    34    45
 C    -2.72220  -3.18820   0.07290    47    48    46     3
 C    -3.11150  -2.51070   1.17900    48    47    51     4
 C    -3.92760   0.79260  -0.15660    49    52    57    50
 C    -3.95790  -0.64480  -0.15630    50    51    45    49
 C    -3.70440  -1.28760   1.08410    51    48    54    50
 C    -3.64560   1.42410   1.08330    52    64    53    49
 C    -3.28560   0.71850   2.21550    53    54    52    12
 C    -3.31290  -0.59850   2.21630    54    53    51     5
 C    -3.05820   0.75080  -2.40720    55    44    57    60
 C    -2.80910   2.73170  -1.15230    56    63    61    57
 C    -3.47810   1.50320  -1.31750    57    55    56    49
 C     0.06520   2.30490  -3.22620    58    37    59    66
 C    -1.30240   2.32890  -2.99110    59    61    60    58
 C    -2.00690   1.16400  -3.22980    60    39    59    55
 C    -1.72240   3.11720  -1.94980    61    59    68    56
 C    -1.40020   3.94860   0.06240    62    65    68    63
 C    -2.60220   3.28590   0.07620    63    64    56    62
 C    -3.00620   2.62800   1.18910    64    63    52    80
 C    -0.62810   3.94040   1.17950    65    62    73    81
 C     0.98000   2.98640  -2.41420    66    72    67    58
 C     0.57250   3.75140  -1.32720    67    66    68    74
 C    -0.82040   3.84250  -1.16660    68    62    61    67
 C     3.76630   1.07320  -1.16830    69    79    40    71
 C     2.65040   3.01250  -0.16850    70    77    71    74
 C     3.03180   2.26950  -1.33520    71    72    69    70
 C     2.16620   2.27590  -2.41960    72    66    71    43
 C     0.73250   3.84550   1.07240    73    65    75    74
 C     1.41630   3.75130  -0.16750    74    73    67    70
 C     1.14190   3.16710   2.20470    75    76    73    82
 C     2.27260   2.48800   2.19190    76    75    20    77
 C     3.07150   2.45010   1.06500    77    78    76    70
 C     3.79280   1.29750   1.16420    78    79    77    11
 C     4.15330   0.61240   0.05760    79    78    69    28
 C    -2.20800   2.61730   2.30840    80    81    12    64
 C    -1.03130   3.26270   2.30710    81    80    82    65
 C     0.04930   2.70740   2.91820    82    81    75    17
