    82
C82-Cs-4                                                                        
 C    -4.07580  -0.00040  -1.47270     1    15     2     3
 C    -3.50050   1.10220  -2.03270     2     4     1     6
 C    -4.40030   0.00430  -0.12960     3    14    47     1
 C    -3.31610   2.22290  -1.29940     4     2     5    48
 C    -2.22400   3.00080  -1.52710     5     4    54     8
 C    -2.52780   0.69630  -2.93770     6     2    16     7
 C    -1.38050   1.45660  -3.21320     7     6    21     8
 C    -1.22730   2.70700  -2.48830     8     5    10     7
 C     1.15700   2.53850  -2.72890     9    10    20    82
 C     0.07010   3.20450  -2.20740    10     9    11     8
 C     0.31650   3.83720  -0.97690    11    53    80    10
 C    -3.62370  -2.20820   0.04550    12    14    25    13
 C    -3.32240  -2.20910  -1.30600    13    15    17    12
 C    -4.12580  -1.09120   0.63390    14    12     3    34
 C    -3.50270  -1.09120  -2.04570    15    13     1    16
 C    -2.53220  -0.70030  -2.94990    16    15     6    19
 C    -2.22560  -2.98570  -1.51750    17    13    26    18
 C    -1.23310  -2.69920  -2.48590    18    17    29    19
 C    -1.38410  -1.45650  -3.22130    19    16    22    18
 C     1.00840   1.35520  -3.44550    20    77     9    21
 C    -0.23650   0.72530  -3.64640    21    20     7    22
 C    -0.23300  -0.73580  -3.64750    22    23    19    21
 C     1.00910  -1.36850  -3.44010    23    78    28    22
 C    -0.66790  -3.91020  -0.02140    24    26    27    30
 C    -2.70600  -2.97780   0.70780    25    12    26    32
 C    -1.91590  -3.52750  -0.27930    26    24    25    17
 C     0.31520  -3.81470  -0.97080    27    24    43    29
 C     1.16520  -2.54600  -2.71790    28    29    23    41
 C     0.06720  -3.19330  -2.20450    29    28    27    18
 C    -0.14720  -3.75120   1.23790    30    24    36    31
 C    -0.84910  -3.07600   2.26450    31    30    39    32
 C    -2.19110  -2.65840   1.98870    32    25    33    31
 C    -2.69140  -1.44040   2.54670    33    35    34    32
 C    -3.64130  -0.68320   1.85600    34    14    33    46
 C    -1.81040  -0.68920   3.31410    35    40    33    44
 C     1.21190  -3.67760   1.05240    36    37    30    43
 C     1.98400  -2.96590   1.89140    37    36    75    38
 C     1.37710  -2.27520   2.91310    38    37    58    39
 C    -0.01600  -2.29700   3.11640    39    40    38    31
 C    -0.53230  -1.10390   3.61030    40    35    60    39
 C     2.41530  -2.51310  -2.07950    41    71    42    28
 C     2.63640  -3.04430  -0.80360    42    43    41    74
 C     1.52470  -3.70870  -0.29610    43    36    27    42
 C    -1.80840   0.71710   3.30900    44    55    45    35
 C    -2.68160   1.47260   2.53390    45    44    46    50
 C    -3.64100   0.71800   1.84270    46    47    34    45
 C    -4.13430   1.11940   0.61850    47    48     3    46
 C    -3.62560   2.23730   0.04780    48    47    51     4
 C    -0.83480   3.10160   2.24820    49    52    57    50
 C    -2.18220   2.68960   1.96700    50    51    45    49
 C    -2.70140   3.01230   0.68650    51    48    54    50
 C    -0.14190   3.77840   1.21500    52    53    64    49
 C    -0.67370   3.95390  -0.03520    53    54    52    11
 C    -1.91570   3.57150  -0.29990    54    53    51     5
 C    -0.53300   1.13970   3.60680    55    44    57    60
 C     1.38450   2.29940   2.91110    56    63    61    57
 C    -0.00580   2.32760   3.11010    57    55    56    49
 C     2.16990  -1.16280   3.15010    58    59    38    67
 C     1.62310   0.01890   3.60880    59    61    58    60
 C     0.25890   0.01650   3.83280    60    59    40    55
 C     2.18090   1.19070   3.14680    61    59    56    70
 C     3.09040   2.30280   1.43610    62    63    70    66
 C     1.97860   2.98460   1.87950    63    64    56    62
 C     1.21800   3.69680   1.03050    64    63    52    80
 C     4.05180   1.12730  -0.35460    65    79    68    66
 C     3.45880   2.32250   0.08310    66    62    65    81
 C     3.23300  -1.18030   2.24260    67    75    69    58
 C     4.20600  -0.00910   0.44940    68    69    73    65
 C     3.78410   0.00660   1.77160    69    70    68    67
 C     3.24170   1.18750   2.24680    70    69    62    61
 C     3.03570  -1.36430  -2.47610    71    41    72    78
 C     3.86830  -0.69070  -1.63020    72    71    73    79
 C     4.07550  -1.14730  -0.35450    73    72    74    68
 C     3.48170  -2.32990   0.10100    74    75    73    42
 C     3.10420  -2.30900   1.44500    75    37    67    74
 C     3.02640   1.36480  -2.48150    76    82    79    77
 C     2.18280   0.66870  -3.30760    77    78    20    76
 C     2.18410  -0.67760  -3.30410    78    77    23    71
 C     3.85720   0.68200  -1.64060    79    76    72    65
 C     1.53120   3.72620  -0.31240    80    64    81    11
 C     2.62870   3.04980  -0.82510    81    80    82    66
 C     2.41130   2.51340  -2.09270    82    76    81     9
