    34
C34-C2-1                                                                        
 C     3.13320  -0.40750   0.32290     1     3    14     2
 C     2.29370  -1.11950   1.17050     2    25     1     9
 C     2.97070   0.92270   0.53640     3    11     1     4
 C     1.89390   1.00580   1.39720     4     3     6     9
 C    -0.37120   1.80340   1.23920     5     6    23    10
 C     0.96700   1.92600   0.92760     6     5     4    12
 C    -0.50580  -1.68490   1.48330     7    24    32     8
 C     0.02710  -0.46050   2.02780     8     9    10     7
 C     1.43060  -0.23450   1.84680     9     4     2     8
 C    -0.88550   0.64290   1.88650    10    34     5     8
 C     2.52740   1.56700  -0.57210    11    12     3    13
 C     1.37110   2.25120  -0.38530    12    11    21     6
 C     2.19660   0.53480  -1.43360    13    14    11    16
 C     2.67050  -0.66950  -0.95110    14    15     1    13
 C     1.77930  -1.68900  -0.89920    15    14    25    19
 C     0.86790   0.66690  -1.85690    16    13    21    18
 C    -1.41490  -0.22780  -1.82010    17    22    28    18
 C    -0.01330  -0.46030  -2.00120    18    17    16    19
 C     0.50970  -1.69880  -1.48610    19    27    15    18
 C    -0.95460   1.96860  -0.98190    20    21    22    23
 C     0.38120   1.88050  -1.29360    21    20    12    16
 C    -1.88610   1.03210  -1.41190    22    30    20    17
 C    -1.36760   2.19990   0.34430    23    31     5    20
 C     0.32570  -2.36450   0.58410    24    25    27     7
 C     1.62430  -2.05710   0.42730    25    24     2    15
 C    -1.62250  -2.05100  -0.41500    26    27    28    32
 C    -0.33880  -2.38230  -0.61920    27    26    24    19
 C    -2.29290  -1.11610  -1.15430    28    26    29    17
 C    -3.13010  -0.40700  -0.32470    29    30    28    33
 C    -2.95340   0.92370  -0.54570    30    31    29    22
 C    -2.52090   1.53110   0.58870    31    23    30    34
 C    -1.78850  -1.68710   0.91470    32    33    26     7
 C    -2.69340  -0.66300   0.97230    33    32    34    29
 C    -2.23260   0.52690   1.48420    34    33    31    10
