    80
C80-D3-4                                                                        
 C     2.11670   1.67790  -2.64280     1     2     6    55
 C     0.88370   2.25530  -2.84600     2     1     3     9
 C     0.64080   3.37510  -2.02840     3     4    52     2
 C    -0.63550   3.72660  -1.67550     4     5    18     3
 C    -1.68160   2.98320  -2.11100     5     4    19    10
 C     2.33620   0.33430  -2.89260     6    57     1     7
 C     1.31150  -0.55420  -3.28030     7     6    14     8
 C    -0.01260   0.00180  -3.47860     8     9     7    12
 C    -0.20070   1.42520  -3.28220     9    10     2     8
 C    -1.48150   1.86130  -2.89360    10    24     5     9
 C    -0.88950  -2.20630  -2.90110    11    75    13    12
 C    -1.15310  -0.87380  -3.28220    12    11    23     8
 C     0.38260  -2.68850  -2.64540    13    14    11    80
 C     1.49990  -1.90820  -2.84160    14    13    15     7
 C     2.59640  -2.25150  -2.02860    15    58    78    14
 C    -1.68170   3.94490   0.42030    16    17    29    18
 C    -2.76310   3.23320  -0.02290    17    16    19    34
 C    -0.63100   4.25100  -0.41010    18    28     4    16
 C    -2.77710   2.76940  -1.31450    19    20     5    17
 C    -3.31590   1.55920  -1.62600    20    19    21    24
 C    -3.95890   0.77070  -0.66980    21    22    20    33
 C    -3.96620  -0.58970  -0.94520    22    71    21    25
 C    -2.41750  -0.35090  -2.84320    23    24    25    12
 C    -2.53260   1.00030  -2.64920    24    23    10    20
 C    -3.24660  -1.13840  -2.02220    25    76    22    23
 C     0.89640   3.81600   1.31400    26    38    27    28
 C    -0.13920   3.41810   2.12320    27    29    26    45
 C     0.66000   4.21540   0.02110    28    18    26    52
 C    -1.42070   3.50030   1.68890    29    27    30    16
 C    -2.32110   2.53330   2.03290    30    29    34    31
 C    -1.93900   1.45100   2.84930    31    32    30    44
 C    -2.68520   0.31230   2.64090    32    31    46    35
 C    -3.85760   1.20130   0.69510    33    34    35    21
 C    -3.22600   2.39700   0.96960    34    17    33    30
 C    -3.66330   0.18640   1.63360    35    72    33    32
 C     3.66990   1.58030   0.94130    36    53    37    41
 C     2.95730   2.73500   0.65890    37    36    38    51
 C     1.99340   3.06220   1.61540    38    26    37    39
 C     1.62360   2.17340   2.64160    39    40    45    38
 C     2.23700   0.95990   2.83780    40    39    41    49
 C     3.35260   0.73260   2.01320    41    43    36    40
 C     3.04350  -1.59240   2.10500    42    43    61    50
 C     3.75560  -0.52490   1.66240    43    42    41    56
 C    -0.57920   1.30780   3.28970    44    45    31    48
 C     0.27740   2.35810   2.90070    45    27    39    44
 C    -2.16460  -0.94570   2.88900    46    65    32    47
 C    -0.82650  -1.16550   3.28160    47    46    68    48
 C     0.01350   0.00020   3.48220    48    44    49    47
 C     1.44190  -0.14870   3.27970    49    50    40    48
 C     1.91640  -1.41710   2.88850    50    69    42    49
 C     2.65100   3.05420  -0.70190    51    52    55    37
 C     1.48900   3.74400  -0.97220    52    28    51     3
 C     4.18610   0.76280  -0.04710    53    56    54    36
 C     3.78430   1.00560  -1.33630    54    55    57    53
 C     3.01230   2.08450  -1.63520    55    54    51     1
 C     4.28340  -0.52400   0.39680    56    53    43    59
 C     3.42010  -0.05210  -2.13000    57    58    54     6
 C     3.54640  -1.32570  -1.68530    58    57    15    59
 C     4.01220  -1.59160  -0.42210    59    62    58    56
 C     1.66860  -3.26170   1.62360    60    61    64    69
 C     2.87150  -2.69950   1.30890    61    60    62    42
 C     3.33090  -2.68880   0.01680    62    59    61    78
 C    -0.46100  -3.96990   0.95360    63    77    64    67
 C     0.89600  -3.93020   0.66920    64    63    60    79
 C    -2.88900  -1.83240   2.11640    65    66    72    46
 C    -2.31680  -2.98080   1.67450    66    65    67    73
 C    -1.02680  -3.26720   2.02970    67    66    68    63
 C    -0.26810  -2.41350   2.84580    68    69    67    47
 C     1.08620  -2.49190   2.64720    69    68    50    60
 C    -3.36830  -2.68630  -0.41030    70    71    73    76
 C    -3.98010  -1.55000   0.04350    71    72    70    22
 C    -3.76950  -1.13560   1.32830    72    35    71    65
 C    -2.56900  -3.44490   0.40860    73    77    66    70
 C    -1.02280  -3.79700  -1.33730    74    80    77    75
 C    -1.76140  -2.95440  -2.13050    75    76    74    11
 C    -2.92330  -2.42180  -1.68510    76    75    25    70
 C    -1.41800  -4.01690  -0.04390    77    73    74    63
 C     2.49460  -3.16690  -0.96850    78    62    79    15
 C     1.31150  -3.83030  -0.69860    79    78    80    64
 C     0.29910  -3.66890  -1.63880    80    74    79    13
