    80
C80-D5h-6                                                                       
 C     2.27000   2.09900   2.48050     1     2     7    47
 C     1.04360   2.26610   3.11140     2     3     4     1
 C     0.52350   1.16990   3.78370     3    46     2    10
 C     0.15120   3.10450   2.45790     4     2     5     8
 C     0.45720   3.72900   1.25530     5    13     4     6
 C     1.68080   3.55020   0.59820     6     5     7    18
 C     2.58350   2.72300   1.27860     7    60     1     6
 C    -1.22210   2.85270   2.47180     8     9    14     4
 C    -1.73720   1.74810   3.13610     9    10     8    11
 C    -0.84270   0.91510   3.79180    10    22     9     3
 C    -2.83070   1.14750   2.52530    11     9    16    20
 C    -0.72450   3.83480  -0.78430    12    13    19    29
 C    -0.72570   3.87090   0.57000    13    12    14     5
 C    -1.76490   3.32410   1.28230    14    13     8    15
 C    -2.84400   2.71120   0.63880    15    14    16    30
 C    -3.36820   1.61160   1.33020    16    25    11    15
 C     2.57340   2.64730  -1.46460    17    59    77    18
 C     1.67160   3.51140  -0.82490    18    19    17     6
 C     0.44690   3.65570  -1.48770    19    12    80    18
 C    -3.01360  -0.23750   2.56910    20    21    26    11
 C    -2.10420  -1.06020   3.22190    21    22    23    20
 C    -1.01650  -0.45900   3.83710    22    10    34    21
 C    -1.88960  -2.29590   2.62460    23    21    28    32
 C    -3.89010   0.48390  -0.67480    24    25    41    31
 C    -3.88560   0.51730   0.67940    25    24    26    16
 C    -3.66480  -0.62820   1.40470    26    25    20    27
 C    -3.43550  -1.85560   0.77550    27    26    28    42
 C    -2.53220  -2.68320   1.45440    28    37    23    27
 C    -1.76360   3.23830  -1.46590    29    12    73    30
 C    -2.84740   2.66280  -0.78400    30    31    29    15
 C    -3.38060   1.53170  -1.41240    31    24    76    30
 C    -0.62780  -2.89740   2.64070    32    33    38    23
 C     0.45490  -2.27670   3.25170    33    34    32    35
 C     0.23820  -1.04730   3.85620    34    46    22    33
 C     1.67860  -2.46390   2.61900    35    33    40    44
 C    -1.68260  -3.56450  -0.56290    36    37    43    53
 C    -1.67210  -3.52540   0.79130    37    36    38    28
 C    -0.49310  -3.65660   1.48390    38    37    32    39
 C     0.72510  -3.82810   0.81980    39    38    40    54
 C     1.81140  -3.21350   1.45570    40    49    35    39
 C    -3.66220  -0.70110  -1.34140    41    24    69    42
 C    -3.43220  -1.89870  -0.64730    42    43    41    27
 C    -2.54120  -2.76670  -1.28730    43    36    72    42
 C     2.64310  -1.45100   2.58880    44    45    50    35
 C     2.40830  -0.21980   3.18840    45    46    44    47
 C     1.19310  -0.04340   3.82790    46    45    34     3
 C     2.94230   0.87380   2.51680    47    45    52     1
 C     2.84880  -2.71180  -0.60270    48    49    56    55
 C     2.85730  -2.66720   0.75100    49    48    50    40
 C     3.36960  -1.57630   1.41010    50    49    44    51
 C     3.89100  -0.48260   0.71160    51    50    52    57
 C     3.66390   0.75180   1.33410    52    60    47    51
 C    -0.50760  -3.72690  -1.26440    53    36    65    54
 C     0.72320  -3.86390  -0.60350    54    55    53    39
 C     1.80410  -3.29580  -1.28700    55    48    68    54
 C     3.34530  -1.65510  -1.33570    56    48    61    57
 C     3.88010  -0.51810  -0.71270    57    58    56    51
 C     3.65310   0.67370  -1.41050    58    59    64    57
 C     3.44840   1.86210  -0.74370    59    60    58    17
 C     3.45440   1.89980   0.60760    60    59     7    52
 C     2.61960  -1.60650  -2.52030    61    63    56    68
 C     1.15970  -0.26320  -3.80050    62    63    66    78
 C     2.39210  -0.39990  -3.17110    63    64    61    62
 C     2.92780   0.74010  -2.59340    64    63    58    77
 C    -0.64920  -3.05420  -2.47380    65    67    53    72
 C     0.20480  -1.27410  -3.76980    66    67    70    62
 C     0.43930  -2.47630  -3.11200    67    68    65    66
 C     1.66890  -2.62310  -2.49540    68    67    55    61
 C    -3.03420  -0.37900  -2.53950    69    71    41    76
 C    -1.05060  -0.67640  -3.78280    70    71    66    74
 C    -2.13540  -1.25630  -3.13470    71    72    69    70
 C    -1.91110  -2.45850  -2.48630    72    71    43    65
 C    -1.24080   2.71300  -2.64310    73    75    29    80
 C    -0.87180   0.70260  -3.82620    74    75    78    70
 C    -1.77530   1.57200  -3.22550    75    76    73    74
 C    -2.86280   1.00180  -2.58810    76    75    31    69
 C     2.26140   1.96190  -2.63370    77    79    17    64
 C     0.49520   0.95820  -3.83780    78    79    74    62
 C     1.02620   2.10110  -3.25040    79    80    77    78
 C     0.13030   2.97330  -2.65650    80    79    19    73
