    80
C80-C2v-3                                                                       
 C     4.25960   0.00440   0.68480     1     2    15     3
 C     3.80430   1.09940   1.36910     2     4     1     6
 C     4.26110   0.00360  -0.69270     3    14    45     1
 C     3.43790   2.21840   0.68880     4     2    10    46
 C     0.97900   0.69720   3.51020     5    80     7    18
 C     3.06590   0.69450   2.45890     6     2    16     7
 C     1.98890   1.45540   2.93100     7     5     6     8
 C     1.62220   2.67320   2.27530     8    10     7     9
 C     0.25120   3.10140   2.28070     9    11    79     8
 C     2.39660   2.99230   1.12970    10     4    52     8
 C    -0.20580   3.79990   1.13250    11    76    51     9
 C     3.44960  -2.20890  -0.69110    12    14    20    13
 C     3.45730  -2.21350   0.69460    13    15    23    12
 C     3.81570  -1.09140  -1.37450    14    12     3    30
 C     3.81890  -1.09480   1.37290    15    13     1    16
 C     3.07410  -0.70550   2.46490    16    15    17     6
 C     1.99170  -1.45780   2.93530    17    18    16    22
 C     0.97360  -0.70910   3.50930    18    39    17     5
 C     0.57740  -3.91270  -0.00540    19    21    24    26
 C     2.40850  -2.97530  -1.14360    20    12    21    28
 C     1.84690  -3.52310  -0.00480    21    19    23    20
 C     1.63120  -2.67740   2.27390    22    23    17    25
 C     2.41430  -2.98540   1.13250    23    13    21    22
 C    -0.19880  -3.78910   1.12960    24    38    19    25
 C     0.25930  -3.10170   2.28260    25    24    40    22
 C    -0.19190  -3.77640  -1.14530    26    32    19    27
 C     0.26770  -3.08780  -2.29560    27    26    35    28
 C     1.63590  -2.66060  -2.29110    28    20    29    27
 C     1.99940  -1.44020  -2.94260    29    31    30    28
 C     3.07570  -0.68440  -2.46190    30    14    29    44
 C     0.99050  -0.68110  -3.51680    31    36    29    42
 C    -1.48270  -3.72080  -0.69160    32    33    26    38
 C    -2.41240  -3.00370  -1.37100    33    32    34    69
 C    -2.04530  -2.29080  -2.47840    34    33    56    35
 C    -0.72240  -2.30560  -2.96400    35    36    34    27
 C    -0.31940  -1.10570  -3.54140    36    31    58    35
 C    -2.42860  -3.02170   1.36020    37    38    41    68
 C    -1.49320  -3.73360   0.68640    38    37    24    32
 C    -0.33400  -1.13540   3.53500    39    18    40    72
 C    -0.74370  -2.33360   2.95320    40    39    41    25
 C    -2.06820  -2.31660   2.47480    41    37    75    40
 C     0.99230   0.72240  -3.51550    42    53    43    31
 C     2.00140   1.47660  -2.93170    43    42    44    48
 C     3.08060   0.71840  -2.45190    44    45    30    43
 C     3.82660   1.11680  -1.36240    45    46     3    44
 C     3.44770   2.23550  -0.69530    46    45    49     4
 C     0.25850   3.11530  -2.27520    47    50    55    48
 C     1.63260   2.69390  -2.27340    48    49    43    47
 C     2.40750   3.01120  -1.12640    49    46    52    48
 C    -0.20240   3.80420  -1.12250    50    62    51    47
 C     0.57680   3.95500   0.00600    51    52    50    11
 C     1.84190   3.56740   0.00360    52    51    49    10
 C    -0.32040   1.14340  -3.53720    53    42    55    58
 C    -2.05620   2.31910  -2.46120    54    61    59    55
 C    -0.73540   2.33490  -2.94820    55    53    54    47
 C    -2.86590  -1.16310  -2.50440    56    57    34    64
 C    -2.41690   0.01280  -3.06790    57    59    56    58
 C    -1.13800   0.01650  -3.58780    58    57    36    53
 C    -2.86900   1.18320  -2.49810    59    57    54    66
 C    -3.40260   2.32940  -0.67970    60    63    66    61
 C    -2.42930   3.02770  -1.35420    61    62    54    60
 C    -1.49790   3.74000  -0.67860    62    61    50    76
 C    -3.40210   2.31820   0.68740    63    70    60    77
 C    -3.68760  -1.17980  -1.36980    64    69    56    65
 C    -4.07650  -0.00130  -0.71780    65    66    64    71
 C    -3.69570   1.17990  -1.36850    66    60    59    65
 C    -3.69260  -1.18750   1.36990    67    68    75    71
 C    -3.40290  -2.33570   0.67470    68    69    67    37
 C    -3.39740  -2.32980  -0.68830    69    68    64    33
 C    -3.69310   1.17380   1.37640    70    63    71    73
 C    -4.07640  -0.00250   0.72000    71    70    67    65
 C    -1.15240  -0.00700   3.58330    72    74    39    80
 C    -2.87850   1.17180   2.51620    73    74    78    70
 C    -2.43980  -0.01040   3.07140    74    75    73    72
 C    -2.88380  -1.18690   2.51460    75    74    41    67
 C    -1.50360   3.73800   0.69840    76    77    11    62
 C    -2.43090   3.01310   1.36840    77    76    78    63
 C    -2.06270   2.30730   2.48030    78    77    73    79
 C    -0.73830   2.31730   2.95730    79    80    78     9
 C    -0.33200   1.12020   3.53650    80     5    79    72
