    78
C78-D3h-4                                                                       
 C     4.19650  -1.35630  -0.08140     1     7     2     3
 C     3.35310  -2.44960   0.02170     2     4    13     1
 C     4.19230  -0.61290  -1.25330     3    20    45     1
 C     2.60260  -2.81930  -1.03780     4     2     5    44
 C     1.36500  -3.36320  -0.84570     5     4    57    11
 C     2.60840  -0.83280   2.87090     6     8    14    16
 C     4.20430  -0.74600   1.14260     7     1     8    18
 C     3.36470  -1.47620   1.95770     8     6     7    13
 C    -1.35760  -3.37480  -0.84140     9    76    58    10
 C    -0.70410  -3.52770   0.41410    10     9    11    27
 C     0.72490  -3.52210   0.41710    11     5    10    12
 C     1.46940  -3.01990   1.53320    12    13    15    11
 C     2.79130  -2.53700   1.28250    13     8     2    12
 C     1.36410  -1.29320   3.19380    14     6    22    15
 C     0.71970  -2.41480   2.59240    15    14    26    12
 C     2.60680   0.54860   2.95000    16    17    23     6
 C     3.37290   1.26290   2.09650    17    16    18    39
 C     4.21640   0.63870   1.20120    18    19    17     7
 C     4.21670   1.38190   0.05280    19    18    20    28
 C     4.19880   0.75770  -1.18340    20     3    29    19
 C    -0.64910  -0.19540   3.59610    21    22    24    35
 C     0.66330  -0.17860   3.59290    22    21    14    23
 C     1.36900   0.97190   3.32580    23    16    22    37
 C    -1.35480  -1.31360   3.21400    24    74    21    26
 C    -2.78190  -2.53790   1.28920    25    73    78    27
 C    -0.70790  -2.42100   2.59430    26    24    15    27
 C    -1.45340  -3.02490   1.53130    27    26    25    10
 C     3.36630   2.45350   0.27340    28    31    19    39
 C     3.35790   1.21810  -2.17620    29    30    20    46
 C     2.59940   2.30990  -1.95820    30    29    47    31
 C     2.59720   2.93650  -0.72390    31    28    33    30
 C     0.65180   3.21600  -1.64600    32    34    47    33
 C     1.35660   3.44120  -0.48250    33    31    32    42
 C    -0.66080   3.21430  -1.64430    34    32    56    43
 C    -1.35200   0.95870   3.32340    35    69    21    36
 C    -0.70360   2.12810   2.83200    36    35    37    40
 C     0.72340   2.13710   2.82940    37    23    36    38
 C     1.47060   2.84760   1.83630    38    37    39    42
 C     2.79440   2.39150   1.53630    39    17    28    38
 C    -1.45950   2.83240   1.83930    40    71    36    41
 C    -0.71590   3.45410   0.78250    41    43    42    40
 C     0.71120   3.46210   0.78550    42    33    41    38
 C    -1.36810   3.42840  -0.48100    43    66    34    41
 C     2.60700  -2.07180  -2.20060    44    45    55     4
 C     3.35700  -0.95730  -2.29390    45    44     3    46
 C     2.78470   0.16160  -2.87020    46    45    29    50
 C     1.35650   2.41010  -2.51090    47    30    32    49
 C    -0.72130   1.40320  -3.26310    48    56    49    52
 C     0.70910   1.39670  -3.27420    49    47    48    50
 C     1.45520   0.18080  -3.40250    50    46    49    54
 C    -2.79060   0.14620  -2.83700    51    63    68    52
 C    -1.46230   0.17920  -3.38220    52    53    48    51
 C    -0.71790  -1.04550  -3.39100    53    59    54    52
 C     0.71180  -1.04420  -3.39760    54    55    53    50
 C     1.35810  -2.13120  -2.74330    55    44    57    54
 C    -1.37620   2.41290  -2.50340    56    67    34    48
 C     0.65390  -3.03170  -1.97860    57    58    55     5
 C    -0.65660  -3.02920  -1.97790    58    57    59     9
 C    -1.36840  -2.13180  -2.73910    59    64    58    53
 C    -4.20850   1.36600   0.07600    60    75    61    65
 C    -4.20210   0.74580  -1.16180    61    62    68    60
 C    -4.19700  -0.62460  -1.22990    62    61    63    77
 C    -3.36120  -0.98000  -2.26770    63    64    62    51
 C    -2.60620  -2.09280  -2.17720    64    63    59    76
 C    -3.35860   2.43980   0.28820    65    66    60    71
 C    -2.60940   2.92390  -0.72380    66    65    43    67
 C    -2.62060   2.30810  -1.96320    67    68    56    66
 C    -3.37070   1.21090  -2.16060    68    67    61    51
 C    -2.59350   0.52390   2.95880    69    70    35    74
 C    -3.35890   1.24630   2.11070    70    69    75    71
 C    -2.78120   2.36770   1.54670    71    70    65    40
 C    -4.20180  -0.76570   1.15900    72    77    73    75
 C    -3.36140  -1.48750   1.98360    73    74    72    25
 C    -2.60150  -0.85920   2.89900    74    73    24    69
 C    -4.21050   0.61650   1.22550    75    60    70    72
 C    -2.60460  -2.85020  -1.01840    76    78     9    64
 C    -4.19770  -1.38260  -0.06660    77    72    78    62
 C    -3.36070  -2.47100   0.03060    78    76    77    25
