    78
C78-D3h-5                                                                       
 C     1.13660   2.66130   2.55560     1     6    50     2
 C     2.32120   2.58020   1.81100     2     1     3     9
 C     3.07980   1.42460   2.05830     3     4    49     2
 C     3.83190   0.84090   1.07020     4     5     3    16
 C     3.82610   1.35700  -0.19430     5     4    10    17
 C     0.00880   3.27030   2.05080     6     7     1    13
 C     0.00280   3.78240   0.79630     7     6    78     8
 C     1.13510   3.69240   0.01670     8     7    21     9
 C     2.32450   3.11650   0.48550     9    10     8     2
 C     3.07940   2.46570  -0.50020    10     5    23     9
 C    -3.06970   1.43310   2.06000    11    74    52    12
 C    -2.31020   2.59120   1.81560    12    13    11    77
 C    -1.12260   2.66630   2.55960    13     6    54    12
 C     3.81670  -1.34850   0.18280    14    16    15    27
 C     3.82170  -0.84200  -1.09360    15    17    33    14
 C     3.82150  -0.51940   1.27020    16    14    36     4
 C     3.82180   0.51140  -1.28020    17    15    18     5
 C     3.07440   1.07850  -2.28050    18    17    23    19
 C     2.31510   0.28780  -3.15910    19    20    18    32
 C     1.13040   0.89110  -3.60210    20    66    24    19
 C     0.70190   3.57760  -1.30120    21    22     8    70
 C     1.43650   2.86470  -2.23970    22    23    21    24
 C     2.63570   2.32410  -1.81970    23    22    18    10
 C     0.69420   2.13610  -3.16150    24    22    20    73
 C     1.12140  -3.53670   1.03620    25    37    31    26
 C     2.31110  -2.85780   1.33060    26    25    27    35
 C     3.05800  -2.49430   0.19930    27    14    28    26
 C     2.61930  -2.70670  -1.11150    28    30    27    33
 C     0.69250  -2.89490  -2.45300    29    30    34    43
 C     1.41820  -3.34770  -1.35840    30    28    31    29
 C     0.68480  -3.78150  -0.26450    31    30    45    25
 C     2.31450  -1.13270  -2.96430    32    34    33    19
 C     3.07490  -1.65140  -1.90810    33    15    28    32
 C     1.12400  -1.81900  -3.22750    34    67    29    32
 C     2.32090  -1.98230   2.45960    35    36    39    26
 C     3.07730  -0.80640   2.38450    36    16    49    35
 C    -0.01170  -3.41090   1.80380    37    38    25    40
 C     0.00060  -2.57930   2.87510    38    37    39    56
 C     1.13140  -1.86330   3.19340    39    38    47    35
 C    -1.13980  -3.54830   1.03080    40    37    45    41
 C    -2.32240  -2.86140   1.33410    41    40    42    55
 C    -3.07060  -2.49340   0.20330    42    59    46    41
 C    -0.70440  -2.89360  -2.45270    43    44    62    29
 C    -1.43130  -3.35110  -1.36160    44    45    46    43
 C    -0.70790  -3.79200  -0.26770    45    44    40    31
 C    -2.62730  -2.70270  -1.10840    46    44    64    42
 C     0.70010  -0.66280   3.74820    47    48    39    51
 C     1.43750   0.50470   3.59660    48    49    50    47
 C     2.63500   0.40880   2.91610    49    48    36     3
 C     0.69770   1.66570   3.42110    50    48     1    54
 C    -0.69730  -0.67130   3.74060    51    53    56    47
 C    -2.62090   0.40870   2.90910    52    53    57    11
 C    -1.42190   0.50540   3.59370    53    54    52    51
 C    -0.69330   1.66820   3.42640    54    53    13    50
 C    -2.32640  -1.98330   2.46210    55    56    57    41
 C    -1.13810  -1.87190   3.19390    56    38    51    55
 C    -3.07890  -0.80490   2.37570    57    60    55    52
 C    -3.81700  -0.82970  -1.07350    58    61    59    64
 C    -3.82740  -1.34610   0.19890    59    60    58    42
 C    -3.83260  -0.50250   1.27140    60    59    57    74
 C    -3.81120   0.52540  -1.27060    61    58    68    75
 C    -1.13070  -1.81250  -3.22380    62    67    43    63
 C    -2.31830  -1.11510  -2.95850    63    64    62    69
 C    -3.07090  -1.63800  -1.89780    64    58    46    63
 C    -1.13270   0.89200  -3.60770    65    66    73    69
 C    -0.00040   0.15390  -3.88190    66    67    20    65
 C    -0.00180  -1.18570  -3.69530    67    66    34    62
 C    -3.06600   1.09210  -2.27210    68    61    71    69
 C    -2.31910   0.30120  -3.15440    69    68    65    63
 C    -0.69490   3.58350  -1.28880    70    72    78    21
 C    -2.62490   2.33230  -1.79790    71    72    68    76
 C    -1.42240   2.86810  -2.23390    72    73    71    70
 C    -0.69760   2.13990  -3.16370    73    72    24    65
 C    -3.83220   0.85490   1.07710    74    75    60    11
 C    -3.82080   1.37490  -0.18580    75    74    76    61
 C    -3.07570   2.48780  -0.48130    76    75    71    77
 C    -2.31470   3.14360   0.49550    77    78    76    12
 C    -1.13220   3.71660   0.02540    78     7    70    77
