    84
C84-D2-21                                                                       
 C     0.53560  -2.37530   3.10110     1    14     2    55
 C    -0.84750  -2.34930   3.06690     2     1     3     7
 C    -1.41830  -3.19110   2.09390     3     4    54     2
 C    -2.60030  -2.86310   1.47970     4     5     3    23
 C    -3.26740  -1.74870   1.82310     5     4     8    18
 C    -0.71920   0.02230   3.75870     6     9    12     7
 C    -1.50260  -1.14050   3.41680     7     8     2     6
 C    -2.74550  -0.91120   2.78580     8    11     5     7
 C    -1.29030   1.27370   3.44310     9    10    84     6
 C    -2.50880   1.41500   2.81330    10    11    36     9
 C    -3.22600   0.33030   2.47810    11    10     8    21
 C     0.71070  -0.01830   3.76530    12    14     6    13
 C     1.48940   1.15220   3.43170    13    15    83    12
 C     1.28330  -1.26970   3.45400    14    63     1    12
 C     2.73950   0.91840   2.80490    15    62    80    13
 C    -3.93330  -0.29970  -1.32790    16    24    19    17
 C    -3.94290  -1.38680  -0.45280    17    16    18    22
 C    -3.96830  -1.01240   0.89150    18     5    21    17
 C    -3.96080   1.02440  -0.90060    19    32    16    20
 C    -3.95850   1.40060   0.44620    20    21    19    37
 C    -3.96410   0.30800   1.31210    21    11    18    20
 C    -3.21260  -2.54850  -0.82240    22    23    26    17
 C    -2.57060  -3.28830   0.17120    23     4    41    22
 C    -3.20060  -0.32230  -2.49510    24    25    27    16
 C    -2.48500  -1.40710  -2.82570    25    24    26    28
 C    -2.50090  -2.52300  -2.02950    26    25    39    22
 C    -2.73290   0.92260  -2.79680    27    24    32    30
 C    -1.26670  -1.28030  -3.45340    28    25    43    29
 C    -0.70670  -0.02580  -3.76820    29    28    49    30
 C    -1.48570   1.14340  -3.42960    30    27    34    29
 C    -2.59400   2.87130  -1.49280    31    32    33    38
 C    -3.26030   1.75860  -1.83970    32    31    27    19
 C    -1.41250   3.19130  -2.10540    33    31    72    34
 C    -0.83110   2.35290  -3.07760    34    35    33    30
 C     0.54860   2.37370  -3.11010    35    34    48    75
 C    -2.52520   2.53360   2.02320    36    10    76    37
 C    -3.23100   2.56420   0.81070    37    38    36    20
 C    -2.58140   3.29980  -0.18330    38    31    79    37
 C    -1.29130  -3.16380  -2.21920    39    40    26    43
 C    -0.69800  -3.91490  -1.22250    40    42    39    41
 C    -1.36750  -3.94590  -0.00800    41    23    40    54
 C     0.67700  -3.91810  -1.17960    42    40    45    52
 C    -0.52630  -2.39320  -3.10680    43    28    44    39
 C     0.85400  -2.36160  -3.07380    44    43    45    50
 C     1.43250  -3.19400  -2.09530    45    47    42    44
 C     3.26840  -1.76450  -1.82990    46    47    51    59
 C     2.61040  -2.87940  -1.47270    47    46    45    58
 C     1.29530   1.26610  -3.45790    48    68    35    49
 C     0.72350   0.01400  -3.76890    49    48    29    50
 C     1.50800  -1.15140  -3.42600    50    51    44    49
 C     2.75350  -0.92290  -2.79500    51    69    46    50
 C     1.38950  -3.94940   0.01770    52    58    53    42
 C     0.71330  -3.91260   1.23080    53    54    55    52
 C    -0.66210  -3.92120   1.19020    54    53     3    41
 C     1.30550  -3.15320   2.22250    55    53    56     1
 C     2.52500  -2.52750   2.04170    56    63    55    57
 C     3.23200  -2.56120   0.83050    57    58    56    60
 C     2.59840  -3.30230  -0.16600    58    47    52    57
 C     3.96060  -1.02690  -0.88650    59    46    64    60
 C     3.94980  -1.38810   0.46520    60    61    59    57
 C     3.94090  -0.29880   1.33510    61    62    66    60
 C     3.21970  -0.32680   2.51000    62    63    15    61
 C     2.50980  -1.41040   2.84020    63    62    56    14
 C     3.94100   0.29280  -1.31990    64    69    59    65
 C     3.94010   1.37980  -0.44310    65    66    64    71
 C     3.94850   1.02180   0.90660    66    80    61    65
 C     2.52220   2.51870  -2.03480    67    68    75    71
 C     2.51700   1.40410  -2.83540    68    69    67    48
 C     3.22770   0.32250  -2.49910    69    68    51    64
 C     2.57780   3.28290   0.17800    70    81    73    71
 C     3.21770   2.54580  -0.81860    71    70    67    65
 C    -0.66780   3.91440  -1.18630    72    74    33    79
 C     1.36810   3.93480  -0.00460    73    70    74    77
 C     0.71010   3.90100  -1.22750    74    72    75    73
 C     1.30590   3.15230  -2.22330    75    74    67    35
 C    -1.30660   3.16460   2.21750    76    78    36    84
 C     0.66460   3.91400   1.19800    77    78    82    73
 C    -0.71460   3.92050   1.22000    78    77    79    76
 C    -1.37990   3.95820   0.00900    79    78    38    72
 C     3.25640   1.76100   1.84240    80    81    66    15
 C     2.59040   2.87350   1.49340    81    80    82    70
 C     1.41800   3.20040   2.11700    82    81    77    83
 C     0.83480   2.36350   3.08340    83    84    82    13
 C    -0.54410   2.38910   3.10660    84    83     9    76
