    84
C84-Cs-10                                                                       
 C     1.43140  -2.93040  -2.27280     1     2    14    55
 C     2.55660  -2.12550  -2.28430     2     1     3     7
 C     3.35890  -2.20790  -1.12990     3     4    54     2
 C     4.09530  -1.15510  -0.67850     4     5     3    18
 C     4.07110   0.01300  -1.36350     5     4     8    19
 C     1.23820  -0.51160  -3.62880     6     9    12     7
 C     2.47760  -0.88770  -2.99190     7     8     2     6
 C     3.29000   0.15300  -2.47970     8     5    11     7
 C     0.95600   0.86960  -3.66980     9    84    10     6
 C     1.77410   1.81530  -3.08760    10    11    26     9
 C     2.91550   1.47560  -2.49330    11    10     8    20
 C     0.09220  -1.36680  -3.60820    12    14     6    13
 C    -1.25210  -0.82730  -3.62770    13    15    83    12
 C     0.26300  -2.59100  -2.93300    14    63     1    12
 C    -2.25760  -1.57190  -2.96330    15    62    80    13
 C     4.07460   0.00350   1.36950    16    18    28    17
 C     4.08580   1.19630   0.67550    17    19    21    16
 C     4.09510  -1.16820   0.69040    18    16    37     4
 C     4.08490   1.20970  -0.67860    19    17    20     5
 C     3.34060   2.13390  -1.35170    20    19    11    23
 C     3.32420   2.10750   1.35670    21    17    29    22
 C     2.55150   3.11210   0.72040    22    21    32    23
 C     2.55350   3.12530  -0.72230    23    20    25    22
 C     0.27980   3.96320  -0.68200    24    31    25    79
 C     1.37620   3.52160  -1.41540    25    24    26    23
 C     1.02260   2.85210  -2.60370    26    10    76    25
 C     1.76370   1.79200   3.08740    27    29    30    33
 C     3.29730   0.12820   2.48950    28    16    29    35
 C     2.90680   1.44520   2.49920    29    27    28    21
 C     1.03010   2.83990   2.60180    30    27    50    32
 C     0.28100   3.96380   0.69770    31    24    32    48
 C     1.37700   3.51360   1.41540    32    31    30    22
 C     0.95400   0.84520   3.67410    33    27    45    34
 C     1.24480  -0.53160   3.63080    34    33    40    35
 C     2.48430  -0.91520   2.99750    35    28    36    34
 C     2.56440  -2.14680   2.28150    36    38    37    35
 C     3.36180  -2.23030   1.12280    37    18    54    36
 C     1.43590  -2.94790   2.25990    38    41    36    52
 C    -1.24330  -0.83940   3.60940    39    42    47    40
 C     0.09750  -1.38160   3.59660    40    41    34    39
 C     0.26680  -2.60110   2.91410    41    44    38    40
 C    -2.24650  -1.57750   2.93740    42    43    69    39
 C    -1.99790  -2.73630   2.25840    43    44    42    59
 C    -0.75630  -3.24590   2.25380    44    43    58    41
 C    -0.31970   1.37090   3.64330    45    33    47    50
 C    -2.55180   1.12190   2.96310    46    68    51    47
 C    -1.44470   0.56910   3.62670    47    45    46    39
 C    -1.03510   3.77810   1.11920    48    49    72    31
 C    -1.34930   3.09170   2.28120    49    50    51    48
 C    -0.27550   2.61040   2.99430    50    49    30    45
 C    -2.49920   2.33360   2.28460    51    49    75    46
 C     1.08760  -3.74360   1.15830    52    58    53    38
 C     1.82310  -3.69470  -0.01130    53    54    52    55
 C     2.95940  -2.94260  -0.00860    54    53    37     3
 C     1.07760  -3.72950  -1.17740    55    56    53     1
 C    -0.29130  -3.89260  -1.18410    56    63    55    57
 C    -1.04800  -4.00480  -0.01050    57    58    56    60
 C    -0.28330  -3.90760   1.15320    58    44    52    57
 C    -2.81150  -2.84330   1.14910    59    43    64    60
 C    -2.35630  -3.45120  -0.02060    60    61    59    57
 C    -2.81220  -2.83950  -1.18750    61    62    66    60
 C    -2.00630  -2.74040  -2.30170    62    63    15    61
 C    -0.76830  -3.24490  -2.29260    63    62    56    14
 C    -3.63230  -1.72330   1.16420    64    69    59    65
 C    -4.08120  -1.10650  -0.01000    65    66    64    71
 C    -3.63690  -1.72160  -1.18400    66    80    61    65
 C    -3.91570   0.99970   1.17570    67    68    75    71
 C    -3.45820   0.34260   2.29230    68    69    46    67
 C    -3.31220  -0.98890   2.28750    69    68    64    42
 C    -3.90810   1.00330  -1.18040    70    81    73    71
 C    -4.22500   0.31100  -0.00630    71    70    67    65
 C    -1.84580   3.68070  -0.00160    72    79    48    74
 C    -3.31810   2.26070  -1.17330    73    74    70    77
 C    -3.01250   2.92200   0.00530    74    75    73    72
 C    -3.33130   2.25910   1.17490    75    74    67    51
 C    -0.27720   2.61630  -3.00000    76    78    26    84
 C    -2.48750   2.33720  -2.29120    77    78    82    73
 C    -1.34130   3.10640  -2.27650    78    76    77    79
 C    -1.03350   3.78660  -1.11430    79    78    72    24
 C    -3.31680  -0.98110  -2.30380    80    81    66    15
 C    -3.45010   0.35520  -2.30260    81    80    82    70
 C    -2.54900   1.13150  -2.97610    82    81    77    83
 C    -1.44270   0.58230  -3.64630    83    84    82    13
 C    -0.32360   1.38380  -3.66060    84    83     9    76
