    84
C84-C2v-17                                                                      
 C    -3.82960  -1.34600  -1.36210     1     3     7     2
 C    -3.39300  -2.45760  -0.67190     2     4    13     1
 C    -4.26220  -0.26290  -0.67250     3     1    20    47
 C    -3.39310  -2.45100   0.67320     4     2     5    46
 C    -2.35330  -3.03610   1.34580     5     4    63    11
 C    -1.08400  -2.22610  -3.13570     6     8    14    16
 C    -3.08880  -1.20280  -2.49350     7     1     8    18
 C    -2.25010  -2.30030  -2.51010     8     6    13     7
 C     0.00450  -2.93860   2.65240     9    82    62    10
 C     0.00080  -3.64100   1.41180    10     9    11    30
 C    -1.24220  -3.66800   0.70690    11     5    10    12
 C    -1.24650  -3.66660  -0.72740    12    13    15    11
 C    -2.36100  -3.04340  -1.35240    13     2     8    12
 C    -0.00280  -2.91510  -2.65160    14    23     6    15
 C     0.00280  -3.63480  -1.42080    15    14    29    12
 C    -0.69690  -1.06740  -3.76820    16     6    24    17
 C    -1.47630   0.08870  -3.69990    17    21    16    18
 C    -2.72690   0.06080  -3.02400    18     7    17    19
 C    -3.17350   1.21800  -2.29460    19    20    32    18
 C    -3.94040   0.98950  -1.12270    20     3    35    19
 C    -0.70890   1.24470  -3.65510    21    31    17    26
 C     2.24150  -2.29190  -2.50590    22    23    27    40
 C     1.07500  -2.22020  -3.13240    23    22    14    24
 C     0.68460  -1.06540  -3.76780    24    23    16    25
 C     1.46360   0.08920  -3.70220    25    26    24    41
 C     0.69620   1.24530  -3.65700    26    44    25    21
 C     2.35930  -3.04250  -1.35190    27    80    22    29
 C     2.36090  -3.03970   1.34690    28    79    84    30
 C     1.24620  -3.66970  -0.72100    29    27    15    30
 C     1.24710  -3.67020   0.71150    30    28    10    29
 C    -1.14020   2.35680  -2.97060    31    21    36    32
 C    -2.34630   2.37800  -2.27150    32    31    33    19
 C    -2.31870   3.16450  -1.10700    33    34    39    32
 C    -3.02960   2.82880   0.01620    34    35    33    49
 C    -3.83380   1.76400   0.02240    35    34    48    20
 C    -0.00550   3.04840  -2.55340    36    38    31    44
 C     1.16850   3.82060  -0.68010    37    38    45    55
 C    -0.01070   3.79840  -1.39460    38    39    37    36
 C    -1.18410   3.82810  -0.67690    39    38    33    57
 C     3.08870  -1.19590  -2.48910    40    75    22    41
 C     2.71530   0.06180  -3.02920    41    40    25    42
 C     3.16570   1.21950  -2.30550    42    77    43    41
 C     2.33600   2.37700  -2.27880    43    44    45    42
 C     1.12860   2.35780  -2.97400    44    26    36    43
 C     2.30420   3.15790  -1.11280    45    71    37    43
 C    -3.83750  -1.35200   1.37140    46    47    54     4
 C    -4.27270  -0.25850   0.70280    47    46    48     3
 C    -3.95910   0.98780   1.16280    48    47    35    52
 C    -2.31780   3.16700   1.14280    49    34    57    51
 C    -1.13180   2.33630   2.98390    50    59    58    51
 C    -2.34900   2.36490   2.29860    51    50    49    52
 C    -3.17700   1.20730   2.32640    52    48    51    53
 C    -2.71910   0.04250   3.03920    53    54    60    52
 C    -3.09040  -1.21820   2.50100    54    46    63    53
 C     1.17850   3.82310   0.71190    55    56    72    37
 C    -0.00360   3.79700   1.42440    56    57    58    55
 C    -1.18210   3.83230   0.71370    57    56    49    39
 C     0.00370   3.03550   2.57500    58    56    74    50
 C    -0.69380   1.22240   3.66450    59    50    60    64
 C    -1.46010   0.06510   3.70260    60    59    61    53
 C    -0.68660  -1.09710   3.75690    61    62    69    60
 C    -1.08220  -2.25890   3.13730    62    63     9    61
 C    -2.24790  -2.31480   2.51970    63    62     5    54
 C     0.70850   1.23060   3.66370    64    74    68    59
 C     3.94700   0.98260   1.14330    65    81    70    66
 C     3.17300   1.21550   2.31170    66    65    73    67
 C     2.72440   0.04570   3.02820    67    83    68    66
 C     1.46770   0.06800   3.69850    68    64    69    67
 C     0.69550  -1.09560   3.75430    69    82    61    68
 C     3.81920   1.75630  -0.00380    70    71    77    65
 C     3.01230   2.82230   0.01260    71    70    72    45
 C     2.31600   3.16590   1.14230    72    71    55    73
 C     2.34720   2.37380   2.30160    73    74    72    66
 C     1.14060   2.35040   2.99320    74    64    73    58
 C     3.83760  -1.35560  -1.36270    75    76    40    80
 C     4.27100  -0.26430  -0.68660    76    75    77    81
 C     3.94180   0.97950  -1.14350    77    76    70    42
 C     3.84290  -1.35630   1.36360    78    81    83    79
 C     3.40190  -2.46480   0.66550    79    80    28    78
 C     3.40140  -2.46630  -0.67810    80    79    27    75
 C     4.27570  -0.26750   0.68870    81    78    65    76
 C     1.09180  -2.25680   3.13270    82    84     9    69
 C     3.09840  -1.21490   2.49350    83    78    84    67
 C     2.25940  -2.30840   2.51370    84    82    83    28
