    84
C84-C2-11                                                                       
 C    -3.60700  -1.27920  -1.52220     1     2    53     4
 C    -4.15010  -0.63430  -0.37830     2     3    40     1
 C    -4.23600   0.72890  -0.25870     3     6     2    17
 C    -3.13320  -0.42560  -2.58070     4     5     8     1
 C    -3.26660   0.96750  -2.38120     5     6    11     4
 C    -3.80030   1.52850  -1.25860     6     3     5    18
 C    -1.42050  -2.06030  -3.08400     7     8    52    14
 C    -2.00430  -0.83640  -3.34610     8     7     9     4
 C    -1.08650   0.12070  -3.79880     9    10    12     8
 C    -1.25440   1.44660  -3.50820    10    11    25     9
 C    -2.31160   1.87360  -2.81380    11    10    19     5
 C     0.28300  -0.09060  -3.92220    12    13    76     9
 C     0.86790  -1.31170  -3.64270    13    12    14    81
 C    -0.05040  -2.29710  -3.24450    14    62     7    13
 C    -3.33170   2.22330   1.32420    15    28    17    16
 C    -2.88990   3.02800   0.30670    16    18    15    20
 C    -4.01160   1.07800   1.05110    17    15    39     3
 C    -3.12770   2.69430  -0.97910    18    16    19     6
 C    -2.17020   2.91630  -1.91440    19    18    11    22
 C    -1.68650   3.58450   0.67210    20    16    29    21
 C    -0.65970   3.87900  -0.25220    21    20    35    22
 C    -0.92110   3.51170  -1.63410    22    19    24    21
 C     1.43680   3.16510  -1.96070    23    24    34    78
 C     0.15810   3.09070  -2.45500    24    23    25    22
 C    -0.03430   2.04910  -3.37660    25    10    76    24
 C    -0.93130   1.09420   3.67260    26    27    44    31
 C    -2.21090   1.14130   3.15720    27    26    28    38
 C    -2.43570   2.26630   2.34380    28    15    29    27
 C    -1.42730   3.16710   1.97290    29    30    20    28
 C    -0.14990   3.08620   2.46130    30    29    31    36
 C     0.04880   2.04240   3.37750    31    33    26    30
 C     2.31730   1.85690   2.82980    32    33    67    37
 C     1.25870   1.43220   3.52240    33    32    31    51
 C     1.69510   3.59070  -0.66180    34    73    23    35
 C     0.66940   3.87670   0.26330    35    34    21    36
 C     0.93370   3.49790   1.63940    36    37    30    35
 C     2.17970   2.89080   1.91400    37    74    32    36
 C    -2.88540  -0.08490   2.86900    38    39    27    41
 C    -3.79540  -0.05210   1.78690    39    17    40    38
 C    -3.96270  -1.10630   0.91020    40    43    39     2
 C    -2.18710  -1.31770   3.10090    41    42    45    38
 C    -2.47140  -2.37130   2.19670    42    43    48    41
 C    -3.30580  -2.24630   1.11250    43    40    42    54
 C    -0.27090  -0.10110   3.92080    44    45    26    51
 C    -0.86650  -1.31510   3.63160    45    44    46    41
 C     0.04820  -2.30060   3.23380    46    47    49    45
 C    -0.29110  -3.27610   2.34110    47    48    46    58
 C    -1.53650  -3.30820   1.82380    48    47    42    57
 C     1.42120  -2.07180   3.08410    49    50    63    46
 C     2.00970  -0.85130   3.35480    50    49    51    68
 C     1.10070   0.10930   3.81490    51    33    44    50
 C    -1.87720  -2.88700  -2.06680    52     7    53    55
 C    -2.94970  -2.51810  -1.26200    53    52    54     1
 C    -2.82900  -2.98700   0.05660    54    43    57    53
 C    -0.79190  -3.63540  -1.61230    55    62    52    56
 C    -0.65160  -4.04550  -0.28440    56    57    55    59
 C    -1.72810  -3.69270   0.51440    57    48    54    56
 C     0.80060  -3.63480   1.59920    58    47    63    59
 C     0.65610  -4.03990   0.27060    59    60    58    56
 C     1.72250  -3.67870  -0.53900    60    61    59    65
 C     1.54230  -3.31080  -1.85600    61    62    80    60
 C     0.29570  -3.28210  -2.36350    62    61    14    55
 C     1.88360  -2.89500   2.06600    63    64    49    58
 C     2.94610  -2.52410   1.25360    64    63    65    71
 C     2.82470  -2.97200  -0.07320    65    79    60    64
 C     3.79840   1.50690   1.26860    66    69    67    74
 C     3.27100   0.94970   2.39660    67    66    32    68
 C     3.13860  -0.44800   2.58140    68    67    50    71
 C     4.23150   0.72250   0.25460    69    66    70    75
 C     4.14380  -0.63960   0.36840    70    69    82    71
 C     3.60800  -1.28920   1.50920    71    70    64    68
 C     3.33620   2.22550  -1.32660    72    78    75    73
 C     2.89660   3.02570  -0.30640    73    74    72    34
 C     3.13670   2.67820   0.97410    74    73    37    66
 C     4.01500   1.07860  -1.05660    75    72    83    69
 C     0.93920   1.10360  -3.68330    76    77    12    25
 C     2.21900   1.14860  -3.17370    77    76    78    84
 C     2.44700   2.26720  -2.35290    78    72    77    23
 C     3.29690  -2.23850  -1.13880    79    82    80    65
 C     2.47510  -2.37880  -2.23100    80    61    79    81
 C     2.19820  -1.31480  -3.12290    81    80    13    84
 C     3.95290  -1.09480  -0.92610    82    79    83    70
 C     3.80170  -0.04250  -1.80930    83    75    82    84
 C     2.89360  -0.08000  -2.89190    84    83    77    81
