    84
C84-C2v-7                                                                       
 C    -1.28800  -3.84530  -0.69730     1     2     7    55
 C    -2.25360  -3.17410  -1.41680     2     1     4     3
 C    -3.26210  -2.55600  -0.69080     3     2    10    54
 C    -1.82350  -2.52670  -2.55850     4     8     2     5
 C    -0.47880  -2.53360  -2.95020     5     6    19     4
 C     0.49710  -3.22680  -2.26370     6     5     7    24
 C     0.02910  -3.90130  -1.12380     7    60     1     6
 C    -2.38570  -1.33910  -2.97020     8    13     4     9
 C    -3.41620  -0.69860  -2.27290     9    10     8    16
 C    -3.83440  -1.36280  -1.11500    10    11     3     9
 C    -4.21920  -0.66890   0.00790    11    12    10    38
 C    -4.21360   0.68600   0.00210    12    11    17    28
 C    -1.39440  -0.64820  -3.61420    13    14     8    19
 C    -1.39850   0.68760  -3.60440    14    13    15    20
 C    -2.39030   1.37960  -2.96110    15    14    33    16
 C    -3.41950   0.72300  -2.27170    16    17    15     9
 C    -3.83880   1.39290  -1.11810    17    12    35    16
 C     1.05440  -0.71630  -3.56420    18    19    22    21
 C    -0.20630  -1.33800  -3.58730    19    13     5    18
 C    -0.20610   1.36910  -3.57850    20    14    73    21
 C     1.05390   0.74030  -3.56140    21    20    78    18
 C     2.10150  -1.45870  -2.94450    22    25    18    24
 C     2.61150  -3.01890  -1.14670    23    82    59    24
 C     1.82200  -2.71910  -2.28070    24    23     6    22
 C     3.17230  -0.69760  -2.44850    25    84    77    22
 C    -2.37750   1.34860   2.97340    26    39    32    27
 C    -3.41200   0.70760   2.28000    27    28    26    37
 C    -3.82890   1.38030   1.12830    28    12    29    27
 C    -3.26050   2.56900   0.69850    29    28    31    35
 C    -1.28030   3.84910   0.70170    30    31    46    36
 C    -2.24860   3.18160   1.42290    31    30    32    29
 C    -1.80980   2.54090   2.56690    32    26    31    48
 C    -1.82530   2.56990  -2.55140    33    15    34    73
 C    -2.25700   3.21310  -1.40270    34    36    33    35
 C    -3.26940   2.58490  -0.69520    35    34    17    29
 C    -1.27920   3.86890  -0.69170    36    34    75    30
 C    -3.41610  -0.71340   2.27810    37    38    41    27
 C    -3.83890  -1.38110   1.12560    38    11    54    37
 C    -1.38530   0.65660   3.61500    39    40    26    42
 C    -1.39150  -0.67960   3.60210    40    39    41    43
 C    -2.38610  -1.37170   2.96360    41    40    52    37
 C    -0.19850   1.34770   3.59000    42    39    48    45
 C    -0.20280  -1.36760   3.56700    43    40    56    44
 C     1.05450  -0.73190   3.55390    44    43    62    45
 C     1.06050   0.72180   3.56370    45    42    50    44
 C     0.03600   3.89900   1.13550    46    70    30    47
 C     0.51520   3.22910   2.27620    47    48    46    49
 C    -0.46860   2.55050   2.96130    48    47    42    32
 C     1.83280   2.71210   2.28140    49    72    47    50
 C     2.11360   1.45100   2.94270    50    51    45    49
 C     3.17590   0.69000   2.44010    51    66    61    50
 C    -1.82460  -2.56410   2.55410    52    41    53    56
 C    -2.25920  -3.20610   1.40790    53    55    52    54
 C    -3.27050  -2.57390   0.70230    54    53    38     3
 C    -1.28390  -3.86320   0.69510    55    53    58     1
 C    -0.47520  -2.56950   2.94050    56    57    43    52
 C     0.50540  -3.25030   2.24940    57    56    58    63
 C     0.03420  -3.92070   1.10740    58    60    55    57
 C     2.06790  -3.59550  -0.00840    59    60    64    23
 C     0.81080  -4.02570  -0.01050    60    59    58     7
 C     3.17260  -0.70790   2.43330    61    68    51    62
 C     2.10190  -1.47150   2.92790    62    61    44    63
 C     1.82640  -2.73070   2.26080    63    64    57    62
 C     2.61590  -3.01560   1.12030    64    69    59    63
 C     3.61260   2.20460   0.69010    65    66    72    79
 C     3.95050   1.08120   1.36120    66    65    67    51
 C     4.39710  -0.00610   0.68300    67    66    68    83
 C     3.95150  -1.10530   1.35560    68    69    67    61
 C     3.62230  -2.22530   0.67460    69    68    64    82
 C     0.80450   4.01370   0.00660    70    71    75    46
 C     2.06500   3.58530   0.00260    71    70    80    72
 C     2.60520   3.00140   1.13410    72    65    71    49
 C    -0.47660   2.57120  -2.94440    73    74    20    33
 C     0.50720   3.25340  -2.25730    74    73    75    81
 C     0.03320   3.92410  -1.11780    75    70    36    74
 C     3.93900   1.09070  -1.36710    76    79    83    77
 C     3.16840   0.70210  -2.45260    77    76    25    78
 C     2.10380   1.47520  -2.94100    78    77    21    81
 C     3.61140   2.21760  -0.69340    79    76    80    65
 C     2.61350   3.02110  -1.13430    80    79    71    81
 C     1.82850   2.73450  -2.27350    81    80    74    78
 C     3.62600  -2.22540  -0.71060    82    84    23    69
 C     4.39010  -0.00720  -0.69720    83    84    76    67
 C     3.95460  -1.09580  -1.37410    84    82    83    25
