    84
C84-C1-12                                                                       
 C    -3.48250   0.15500   2.25230     1     9     4     2
 C    -3.98840  -0.60600   1.19980     2     1     3     7
 C    -4.21120   0.13710   0.03300     3    48     6     2
 C    -3.20670   1.51280   2.15630     4    17     1     5
 C    -3.40210   2.24400   0.98540     5     4     6    22
 C    -3.93220   1.49750  -0.06860     6    54     3     5
 C    -3.54610  -1.94760   1.07590     7    11     8     2
 C    -3.37640  -2.45500  -0.21680     8    47    26     7
 C    -2.54900  -0.36560   3.12870     9    10    12     1
 C    -2.11760  -1.63080   3.00100    10     9    11    13
 C    -2.61450  -2.42920   2.00180    11    10    24     7
 C    -1.68420   0.59950   3.55540    12     9    17    15
 C    -0.81230  -1.95920   3.29630    13    10    28    14
 C     0.14270  -1.01800   3.72320    14    13    34    15
 C    -0.32770   0.34320   3.85800    15    12    19    14
 C    -1.25570   2.74090   2.68870    16    17    18    23
 C    -2.13180   1.76630   2.98490    17    16    12     4
 C     0.06590   2.58640   3.00170    18    16    76    19
 C     0.56220   1.41890   3.60340    19    20    18    15
 C     1.87040   1.13330   3.31330    20    19    33    78
 C    -2.12910   3.48360  -0.64790    21    53    79    22
 C    -2.46160   3.27220   0.68690    22    21    23     5
 C    -1.39700   3.49840   1.55940    23    16    82    22
 C    -1.60880  -3.32280   1.69680    24    11    25    28
 C    -1.48030  -3.82630   0.41480    25    27    24    26
 C    -2.37160  -3.35640  -0.53510    26    25     8    39
 C    -0.19180  -4.08560  -0.00110    27    25    30    37
 C    -0.49820  -3.04780   2.50210    28    29    13    24
 C     0.79800  -3.30410   2.10070    29    28    30    35
 C     0.90460  -3.87150   0.81930    30    32    27    29
 C     2.98050  -2.86750   0.43360    31    32    58    36
 C     1.96410  -3.60970  -0.00290    32    31    30    43
 C     2.34370  -0.17060   3.24220    33    73    20    34
 C     1.49880  -1.29500   3.37610    34    33    14    35
 C     1.83500  -2.44880   2.56310    35    36    29    34
 C     2.95800  -2.32110   1.70950    36    74    31    35
 C     0.21100  -3.86640  -1.31560    37    38    43    27
 C    -0.66670  -3.33760  -2.23730    38    39    37    40
 C    -1.96530  -3.10100  -1.84140    39    38    46    26
 C    -0.12390  -2.43260  -3.13200    40    38    44    41
 C     1.22800  -2.09210  -3.11360    41    62    40    42
 C     2.13380  -2.62720  -2.19750    42    41    43    59
 C     1.55560  -3.54050  -1.30750    43    32    37    42
 C    -0.85230  -1.34390  -3.60000    44    55    40    45
 C    -2.16260  -1.08160  -3.20100    45    44    46    50
 C    -2.70270  -2.02880  -2.31550    46    47    39    45
 C    -3.59420  -1.68160  -1.33280    47    48    46     8
 C    -3.99680  -0.40390  -1.21920    48    47    51     3
 C    -1.62590   1.31960  -3.39570    49    52    57    50
 C    -2.57020   0.28120  -3.08880    50    51    45    49
 C    -3.52760   0.56150  -2.08040    51    54    48    50
 C    -1.75120   2.51770  -2.64740    52    53    68    49
 C    -2.67450   2.70590  -1.65370    53    54    52    21
 C    -3.55600   1.73790  -1.37320    54    53    51     6
 C     0.05080  -0.34450  -3.88820    55    44    57    62
 C     0.76070   1.82380  -3.45310    56    67    63    57
 C    -0.30290   0.99220  -3.80280    57    55    56    49
 C     3.64800  -2.01100  -0.42810    58    69    31    59
 C     3.21680  -1.80510  -1.76740    59    58    42    60
 C     3.35650  -0.46710  -2.27950    60    71    61    59
 C     2.38410   0.01540  -3.20370    61    62    63    60
 C     1.34350  -0.81050  -3.59600    62    41    61    55
 C     2.03760   1.37030  -3.16960    63    65    56    61
 C     3.49890   1.82110  -1.39780    64    65    83    71
 C     2.57550   2.24740  -2.25810    65    64    66    63
 C     1.65430   3.19350  -1.89510    66    65    67    80
 C     0.56230   2.95690  -2.69480    67    68    66    56
 C    -0.66670   3.28480  -2.29050    68    67    79    52
 C     4.17080  -1.02110   0.35460    69    70    58    74
 C     4.31210   0.23210  -0.12970    70    69    71    75
 C     3.92240   0.50080  -1.41130    71    70    64    60
 C     3.60410   1.12670   1.92760    72    75    78    73
 C     3.44070  -0.14250   2.41940    73    74    72    33
 C     3.73760  -1.20920   1.65010    74    73    36    69
 C     4.04170   1.32640   0.65700    75    72    83    70
 C     0.79170   3.32550   2.06190    76    77    82    18
 C     2.09100   3.00530   1.71930    77    76    78    84
 C     2.63400   1.93330   2.44480    78    72    77    20
 C    -0.84960   3.85140  -1.05120    79    68    21    81
 C     1.55000   3.70840  -0.58010    80    66    81    84
 C     0.22780   4.04470  -0.16930    81    82    79    80
 C    -0.11500   3.86260   1.15930    82    81    76    23
 C     3.50310   2.32460  -0.10620    83    75    64    84
 C     2.51140   3.21590   0.36490    84    83    77    80
