    84
C84-C2-8                                                                        
 C    -1.57350  -3.14200   1.83580     1    14     2    54
 C    -2.40590  -3.16120   0.73290     2     1     3     7
 C    -3.46170  -2.22840   0.78540     3     4    53     2
 C    -3.97020  -1.65720  -0.35030     4     5     3    18
 C    -3.44000  -1.97920  -1.55420     5     4     8    19
 C    -0.41080  -3.81970  -0.58900     6     9    12     7
 C    -1.82020  -3.50610  -0.51920     7     8     2     6
 C    -2.40560  -2.87520  -1.64060     8     5    11     7
 C     0.24390  -3.46300  -1.78620     9    10    84     6
 C    -0.38580  -2.77910  -2.80160    10    11    26     9
 C    -1.67840  -2.47890  -2.73490    11    10     8    20
 C     0.42060  -3.82380   0.57210    12    14     6    13
 C     1.83190  -3.51650   0.48770    13    15    83    12
 C    -0.23600  -3.47860   1.76810    14    59     1    12
 C     2.41800  -2.89280   1.62090    15    80    58    13
 C    -4.16390   0.58560  -1.03800    16    29    17    18
 C    -3.60900   0.26330  -2.24640    17    19    16    21
 C    -4.35640  -0.37180  -0.07890    18    40    16     4
 C    -3.26800  -1.01440  -2.52220    19    17    20     5
 C    -2.15270  -1.28320  -3.24500    20    19    11    23
 C    -2.79120   1.29460  -2.65950    21    17    30    22
 C    -1.61940   1.08000  -3.42450    22    21    36    23
 C    -1.28590  -0.29210  -3.75300    23    20    25    22
 C     1.05330   0.28780  -3.79850    24    25    35    79
 C     0.07030  -0.67880  -3.89060    25    24    26    23
 C     0.48860  -1.93960  -3.42190    26    10    76    25
 C    -2.53040   3.08660   0.87680    27    41    28    32
 C    -3.54120   2.16060   0.66610    28    27    29    39
 C    -3.73730   1.83120  -0.67760    29    16    28    30
 C    -2.90790   2.30310  -1.70800    30    31    21    29
 C    -1.88240   3.19540  -1.49120    31    30    32    37
 C    -1.75760   3.60770  -0.15290    32    34    27    31
 C     0.55040   3.94500  -0.36310    33    34    50    38
 C    -0.54520   3.93980   0.39560    34    33    32    44
 C     0.73830   1.60230  -3.50330    35    72    24    36
 C    -0.57940   2.04610  -3.25230    36    35    22    37
 C    -0.71180   3.11460  -2.28730    37    38    31    36
 C     0.48230   3.56990  -1.68700    38    73    33    37
 C    -3.71750   1.15560   1.66440    39    40    43    28
 C    -4.11450  -0.11480   1.24060    40    18    53    39
 C    -1.71490   3.06940   1.99050    41    42    44    27
 C    -1.85040   2.09520   2.90170    42    41    43    45
 C    -2.83270   1.15080   2.74850    43    42    51    39
 C    -0.47480   3.55790   1.71330    44    41    34    47
 C    -0.73240   1.57810   3.52290    45    42    55    46
 C     0.58170   2.02300   3.27280    46    45    61    47
 C     0.71820   3.09550   2.31110    47    44    49    46
 C     2.89860   2.27670   1.72090    48    49    60    70
 C     1.88210   3.18350   1.50330    49    48    50    47
 C     1.76930   3.61370   0.17060    50    33    68    49
 C    -2.33010  -0.00020   3.32520    51    43    52    55
 C    -2.69840  -1.24680   2.84520    52    54    53    51
 C    -3.59450  -1.28120   1.80350    53    52    40     3
 C    -1.71620  -2.20600   2.87270    54    52    57     1
 C    -1.04430   0.26060   3.81020    55    56    45    51
 C    -0.06370  -0.70810   3.88850    56    55    57    62
 C    -0.46950  -1.96850   3.41000    57    59    54    56
 C     1.68900  -2.50460   2.71920    58    59    15    63
 C     0.40050  -2.81080   2.78870    59    58    57    14
 C     2.79160   1.26610   2.67180    60    65    48    61
 C     1.62000   1.05720   3.43440    61    60    46    62
 C     1.29580  -0.32150   3.74560    62    63    56    61
 C     2.16460  -1.30680   3.22370    63    66    58    62
 C     4.15750   0.57680   1.03960    64    70    65    67
 C     3.61080   0.24530   2.24800    65    66    64    60
 C     3.28370  -1.03970   2.50300    66    65    63    80
 C     4.35200  -0.37830   0.07610    67    74    64    81
 C     2.53510   3.10820  -0.86630    68    73    50    69
 C     3.53860   2.17260  -0.65890    69    68    70    75
 C     3.73370   1.82490   0.67970    70    64    69    48
 C     2.84030   1.18110  -2.74780    71    72    79    75
 C     1.85980   2.12970  -2.89580    72    73    71    35
 C     1.72540   3.09640  -1.98330    73    72    38    68
 C     4.11160  -0.10860  -1.24210    74    67    77    75
 C     3.72060   1.16600  -1.65700    75    74    71    69
 C     1.73460  -2.18990  -2.88880    76    78    26    84
 C     3.59920  -1.27870  -1.80520    77    78    74    82
 C     2.71000  -1.22160  -2.85600    78    76    77    79
 C     2.34410   0.02530  -3.32710    79    78    71    24
 C     3.46100  -2.00380   1.53540    80    81    15    66
 C     3.98350  -1.67810   0.33200    81    80    82    67
 C     3.48160  -2.24590  -0.80340    82    81    77    83
 C     2.41950  -3.16910  -0.76570    83    84    82    13
 C     1.58340  -3.13560  -1.86090    84    83     9    76
