    84
C84-C2-13                                                                       
 C    -2.84270   2.86400  -1.08260     1     3     2    15
 C    -2.57750   3.30890   0.18010     2     6     4     1
 C    -3.61990   1.77760  -1.27860     3     1    14    46
 C    -3.07210   2.64060   1.25140     4     2    10    49
 C     0.82700   3.77050   1.09120     5     7    83    23
 C    -1.33020   3.83690   0.20750     6     2    22     7
 C    -0.51960   3.73270   1.35220     7     5     6     8
 C    -0.97870   2.96930   2.46890     8    10     7     9
 C    -0.02030   2.19620   3.23060     9    11    82     8
 C    -2.29060   2.45560   2.35800    10     4    54     8
 C    -0.49180   0.97840   3.76270    11    66    53     9
 C    -2.21670   1.05840  -3.13680    12    14    27    13
 C    -1.37520   2.22380  -2.93020    13    15    17    12
 C    -3.31980   0.89400  -2.26420    14     3    25    12
 C    -1.74490   3.08740  -1.87720    15     1    22    13
 C     0.97090   2.95770  -2.46440    16    19    24    17
 C     0.02010   2.17740  -3.22530    17    18    13    16
 C     0.48780   0.95790  -3.74830    18    26    21    17
 C     2.28550   2.44570  -2.34360    19    79    20    16
 C     2.65190   1.21990  -2.85300    20    21    19    72
 C     1.76950   0.49580  -3.53600    21    20    36    18
 C    -0.81950   3.77050  -1.09740    22    24    15     6
 C     1.34330   3.83810  -0.21770    23    78    24     5
 C     0.52270   3.73200  -1.35230    24    22    23    16
 C    -3.73660  -0.33630  -1.78390    25    29    45    14
 C    -0.29780  -0.16110  -3.91150    26    18    27    30
 C    -1.64700  -0.15120  -3.61050    27    26    28    12
 C    -2.13420  -1.38360  -3.14230    28    29    32    27
 C    -3.14000  -1.45000  -2.21310    29    25    39    28
 C     0.50960  -1.29150  -3.73920    30    31    36    26
 C     0.00870  -2.46310  -3.22300    31    30    32    33
 C    -1.33630  -2.49450  -2.93260    32    31    28    40
 C     0.85380  -3.16850  -2.38090    33    41    31    34
 C     2.13700  -2.71860  -2.06890    34    68    35    33
 C     2.67020  -1.54700  -2.59820    35    34    36    73
 C     1.79520  -0.86820  -3.46300    36    21    30    35
 C    -2.43610  -3.14260   0.82120    37    50    38    43
 C    -3.29550  -2.42810  -0.01020    38    37    39    44
 C    -2.94260  -2.51260  -1.37130    39    29    40    38
 C    -1.83370  -3.19570  -1.84040    40    42    39    32
 C     0.35800  -3.87400  -1.29910    41    33    59    42
 C    -0.99930  -3.88810  -0.99300    42    40    43    41
 C    -1.33290  -3.86260   0.34800    43    61    42    37
 C    -3.90210  -1.23960   0.49120    44    45    38    47
 C    -4.16170  -0.22660  -0.47170    45    46    25    44
 C    -4.14060   1.11000  -0.18980    46    49    45     3
 C    -3.59060  -0.78310   1.82550    47    48    51    44
 C    -3.58950   0.61790   2.03870    48    49    54    47
 C    -3.86100   1.52850   1.06320    49    46    48     4
 C    -2.13980  -2.70720   2.09660    50    37    51    55
 C    -2.67100  -1.53250   2.61560    51    50    52    47
 C    -1.79400  -0.83940   3.47210    52    53    58    51
 C    -1.78070   0.52400   3.55650    53    54    52    11
 C    -2.66810   1.23760   2.87280    54    53    10    48
 C    -0.85530  -3.15700   2.39890    55    61    57    50
 C     1.33270  -2.45840   2.94490    56    57    64    62
 C    -0.01690  -2.43570   3.23170    57    58    56    55
 C    -0.50660  -1.25970   3.74630    58    57    52    66
 C     1.33610  -3.86330  -0.31850    59    60    41    68
 C     0.99820  -3.87440   1.02440    60    62    59    61
 C    -0.35800  -3.86870   1.32470    61    43    55    60
 C     1.83600  -3.16700   1.85570    62    60    70    56
 C     3.14210  -1.43530   2.22830    63    67    64    70
 C     2.13860  -1.35390   3.15900    64    63    56    65
 C     1.65070  -0.12120   3.62680    65    66    64    81
 C     0.30360  -0.13410   3.92950    66    11    65    58
 C     3.74150  -0.32240   1.79600    67    63    75    84
 C     2.44370  -3.15290  -0.79600    68    34    69    59
 C     3.30630  -2.43340   0.02530    69    68    70    76
 C     2.95490  -2.50160   1.38620    70    63    62    69
 C     3.85750   1.52260  -1.05500    71    74    72    79
 C     3.57900   0.59970  -2.02750    72    71    20    73
 C     3.59010  -0.80110  -1.80480    73    72    35    76
 C     4.13900   1.09890   0.19690    74    71    75    80
 C     4.17640  -0.23340   0.48430    75    74    67    76
 C     3.91500  -1.24550  -0.47090    76    75    69    73
 C     2.84510   2.87910   1.08820    77    80    78    83
 C     2.59420   3.31570  -0.18410    78    79    23    77
 C     3.08140   2.64100  -1.24790    79    78    19    71
 C     3.62060   1.78550   1.27690    80    77    84    74
 C     2.21970   1.08580   3.14750    81    84    65    82
 C     1.37840   2.24930   2.93450    82    83     9    81
 C     1.75350   3.10820   1.88480    83    77     5    82
 C     3.32350   0.91340   2.27600    84    80    67    81
