    84
C84-D2d-4                                                                       
 C    -1.31620  -3.39130  -1.27360     1    14     2    46
 C    -2.30450  -2.66400  -1.90280     2     1     3     7
 C    -3.38670  -2.31170  -1.08970     3     4     2    45
 C    -4.11630  -1.16180  -1.31450     4     5    18     3
 C    -3.71740  -0.30950  -2.29380     5     4     8    19
 C    -0.49850  -1.76340  -3.35030     6     9    12     7
 C    -1.88600  -1.81010  -2.96670     7     8     2     6
 C    -2.64390  -0.62540  -3.08770     8     5    11     7
 C    -0.00720  -0.51480  -3.77140     9    10    84     6
 C    -0.77410   0.62130  -3.73250    10    11    26     9
 C    -2.06220   0.57450  -3.41650    11    10    25     8
 C     0.48140  -2.60580  -2.75170    12    14     6    13
 C     1.87440  -2.23470  -2.68290    13    15    83    12
 C    -0.01000  -3.40340  -1.70230    14    52     1    12
 C     2.63780  -2.73120  -1.60060    15    80    51    13
 C    -4.56330   0.68190   0.10320    16    30    17    18
 C    -4.11420   1.53330  -0.87520    17    19    16    21
 C    -4.56410  -0.67990  -0.11110    18    29     4    16
 C    -3.71690   1.05760  -2.08290    19    17    25     5
 C    -1.30470   3.62280  -0.12330    20    79    22    33
 C    -3.37390   2.54510  -0.29530    21    17    31    22
 C    -2.29150   3.14210  -0.96050    22    20    21    23
 C    -1.88340   2.68330  -2.24940    23    25    22    24
 C    -0.49130   2.75910  -2.61860    24    26    78    23
 C    -2.65410   1.61180  -2.74140    25    19    11    23
 C     0.00470   1.70250  -3.41050    26    10    74    24
 C    -3.72040  -1.03760   2.05440    27    29    35    28
 C    -3.71680   0.33230   2.27850    28    30    38    27
 C    -4.12060  -1.53610   0.85690    29    27    18    45
 C    -4.10830   1.18350   1.29540    30    28    16    31
 C    -3.37650   2.32760   1.08810    31    30    32    21
 C    -2.29040   2.68180   1.89430    32    33    31    37
 C    -1.29900   3.40050   1.26720    33    60    32    20
 C    -0.76910  -0.61300   3.70900    34    36    41    39
 C    -2.64200  -1.58200   2.70570    35    36    27    43
 C    -2.05590  -0.54870   3.39130    36    34    35    38
 C    -1.87550   1.82740   2.96170    37    38    32    40
 C    -2.64610   0.64900   3.07710    38    36    28    37
 C     0.00070   0.52360   3.75700    39    57    34    40
 C    -0.48770   1.77630   3.34120    40    39    61    37
 C    -0.00310  -1.70240   3.38650    41    34    53    42
 C    -0.49740  -2.75170   2.59060    42    41    48    43
 C    -1.88680  -2.67410   2.21420    43    35    44    42
 C    -2.30570  -3.15000   0.93680    44    46    45    43
 C    -3.39290  -2.55430   0.29060    45    29    44     3
 C    -1.31320  -3.63070   0.11370    46    49    44     1
 C     1.87130  -2.96390   1.81140    47    50    55    48
 C     0.48410  -3.35300   1.75500    48    49    42    47
 C    -0.00670  -3.77590   0.50610    49    52    46    48
 C     2.63140  -3.08750   0.62240    50    51    65    47
 C     2.04790  -3.42580  -0.57360    51    52    15    50
 C     0.76560  -3.74410  -0.62450    52    51    49    14
 C     1.30040  -1.26770   3.38200    53    41    55    57
 C     3.37510  -1.09380   2.29940    54    64    55    58
 C     2.29040  -1.89850   2.66050    55    53    54    47
 C     2.29400   0.94020   3.13280    56    57    58    59
 C     1.30520   0.11820   3.61680    57    39    56    53
 C     3.38030   0.29100   2.52870    58    69    56    54
 C     1.88560   2.22640   2.66270    59    62    56    61
 C     0.00470   3.40720   1.69450    60    33    71    61
 C     0.49810   2.60860   2.74030    61    60    40    59
 C     2.64650   2.71710   1.57880    62    68    73    59
 C     4.56470  -0.11730   0.66750    63    64    69    66
 C     4.10920  -1.31450   1.15800    64    65    63    54
 C     3.70590  -2.29270   0.30590    65    64    50    80
 C     4.55210   0.09570  -0.69580    66    81    70    63
 C     3.70770   2.27610  -0.33020    67    70    72    68
 C     3.72320   2.06080   1.03640    68    69    62    67
 C     4.12340   0.86220   1.52090    69    68    63    58
 C     4.09580   1.29300  -1.18650    70    67    66    75
 C     0.76940   3.72660   0.60000    71    73    79    60
 C     2.63880   3.07520  -0.64930    72    73    67    77
 C     2.05610   3.40290   0.54580    73    71    72    62
 C     1.30570   1.26380  -3.40800    74    26    76    84
 C     3.37080   1.07610  -2.33510    75    70    76    82
 C     2.29290   1.89930  -2.68490    76    74    75    77
 C     1.87680   2.96610  -1.83590    77    72    76    78
 C     0.49150   3.35450  -1.78190    78    79    24    77
 C    -0.00130   3.77070  -0.53360    79    71    20    78
 C     3.71490  -2.07410  -1.06060    80    81    15    65
 C     4.10980  -0.87300  -1.55490    81    80    66    82
 C     3.37820  -0.30610  -2.57260    82    81    83    75
 C     2.28900  -0.95460  -3.16350    83    84    82    13
 C     1.30360  -0.12500  -3.64150    84     9    83    74
