    84
C84-Cs-16                                                                       
 C     4.01880  -1.35850  -0.66170     1     3     7     2
 C     3.77120  -0.66860  -1.83060     2     4    13     1
 C     4.23630  -0.67080   0.48340     3     1    20    45
 C     3.77330   0.67630  -1.82530     4     2     5    44
 C     2.85270   1.35160  -2.58010     5     4    63    11
 C     1.48140  -3.16190  -2.01660     6     8    14    16
 C     3.27570  -2.50130  -0.65120     7     1     8    18
 C     2.63150  -2.51400  -1.87870     8     6    13     7
 C     0.52160   2.67400  -2.89050     9    80    62    10
 C     0.62580   1.41760  -3.55400    10     9    30    11
 C     1.85750   0.70970  -3.37920    11     5    10    12
 C     1.85460  -0.72400  -3.37950    12    13    15    11
 C     2.85480  -1.34880  -2.58180    13     2     8    12
 C     0.52010  -2.67330  -2.86870    14    23     6    15
 C     0.62410  -1.42620  -3.54720    15    14    12    29
 C     0.91740  -3.83600  -0.95890    16     6    24    17
 C     1.48250  -3.76320   0.32330    17    21    16    18
 C     2.69380  -3.04800   0.51800    18     7    17    19
 C     2.89150  -2.30430   1.73570    19    20    32    18
 C     3.67270  -1.12420   1.64720    20     3    35    19
 C     0.52360  -3.75190   1.33010    21    31    17    26
 C    -1.80050  -2.53730  -2.58990    22    23    27    41
 C    -0.65170  -3.18580  -2.37720    23    22    14    24
 C    -0.44350  -3.87340  -1.20160    24    23    16    25
 C    -1.39980  -3.87490  -0.19720    25    24    26    42
 C    -0.84790  -3.82330   1.08140    26    37    25    21
 C    -1.78590  -1.34980  -3.28210    27    22    77    29
 C    -1.78960   1.34240  -3.29540    28    84    76    30
 C    -0.59800  -0.71790  -3.74930    29    27    30    15
 C    -0.59860   0.70810  -3.75450    30    28    29    10
 C     0.70870  -3.01950   2.49230    31    32    21    38
 C     1.85450  -2.27980   2.70930    32    31    33    19
 C     1.63180  -1.10160   3.43550    33    34    40    32
 C     2.38460   0.02280   3.24570    34    35    33    47
 C     3.40390   0.02290   2.37670    35    34    46    20
 C    -2.65080  -2.52720   1.87500    36    37    53    43
 C    -1.47180  -3.14710   2.09440    37    36    38    26
 C    -0.54870  -2.61510   2.94820    38    37    31    39
 C    -0.78450  -1.39940   3.60350    39    40    38    54
 C     0.36780  -0.66990   3.83550    40    39    57    33
 C    -2.80880  -2.55300  -1.65250    41    22    72    42
 C    -2.63350  -3.20760  -0.42840    42    43    41    25
 C    -3.25390  -2.55310   0.63400    43    36    74    42
 C     4.03120   1.37170  -0.66580    44    45    52     4
 C     4.24740   0.70410   0.49050    45    44    46     3
 C     3.69460   1.16510   1.65070    46    45    35    50
 C     1.63180   1.14690   3.43850    47    34    57    49
 C     0.70700   3.04270   2.46350    48    49    59    58
 C     1.86160   2.31520   2.69400    49    48    47    50
 C     2.90380   2.33730   1.72360    50    46    49    51
 C     2.69660   3.06260   0.49490    51    52    60    50
 C     3.27970   2.51100  -0.67420    52    44    63    51
 C    -2.92270  -1.33500   2.51060    53    69    36    54
 C    -2.00150  -0.69720   3.37820    54    53    39    55
 C    -1.99760   0.73720   3.37780    55    71    56    54
 C    -0.78070   1.43930   3.59760    56    57    58    55
 C     0.36850   0.71550   3.83980    57    56    40    47
 C    -0.55260   2.64380   2.92220    58    65    48    56
 C     0.51690   3.77410   1.30200    59    48    60    66
 C     1.47630   3.77010   0.29750    60    59    61    51
 C     0.91670   3.82760  -0.98940    61    62    68    60
 C     1.49040   3.16870  -2.05100    62    63     9    61
 C     2.63830   2.53280  -1.90030    63    62     5    52
 C    -2.65340   2.54840   1.86260    64    65    71    81
 C    -1.47530   3.17630   2.06660    65    64    58    66
 C    -0.85100   3.85080   1.05240    66    65    59    67
 C    -1.40890   3.88130  -0.22500    67    68    66    82
 C    -0.44610   3.86050  -1.22960    68    80    61    67
 C    -3.77500  -0.66410   1.66620    69    70    53    74
 C    -3.76860   0.68170   1.67240    70    69    71    78
 C    -2.92330   1.36240   2.50870    71    70    64    55
 C    -3.51060  -1.36860  -1.79220    72    77    41    73
 C    -4.12010  -0.71000  -0.72070    73    74    72    79
 C    -3.96820  -1.37130   0.49740    74    69    43    73
 C    -3.51050   1.36760  -1.79950    75    76    83    79
 C    -2.88810   0.66340  -2.81620    76    77    28    75
 C    -2.88700  -0.67050  -2.81070    77    76    27    72
 C    -3.95960   1.37990   0.49310    78    70    81    79
 C    -4.11660   0.71240  -0.72300    79    78    75    73
 C    -0.65820   3.18160  -2.41130    80    84     9    68
 C    -3.25260   2.57120   0.61920    81    64    78    82
 C    -2.64110   3.21470  -0.45680    82    81    83    67
 C    -2.81020   2.55760  -1.67630    83    84    75    82
 C    -1.80860   2.53660  -2.61650    84    80    28    83
