    84
C84-C2v-18                                                                      
 C     3.98190   1.38040   0.66600     1     3     7     2
 C     3.24900   2.31670   1.36120     2     4    16     1
 C     3.97750   1.38890  -0.68550     3     1    25    44
 C     2.55810   3.24880   0.67850     4     2     5    43
 C     1.34240   3.65670   1.14390     5     4    61    14
 C     2.53740  -0.47970   3.11030     6     8    10    21
 C     3.93500   0.20140   1.34980     7     1     8    23
 C     3.21930   0.48270   2.50190     8     6    16     7
 C     0.67150  -1.38760   3.70610     9    11    10    29
 C     1.34510  -0.19500   3.72780    10     9     6    19
 C    -0.66390  -1.38900   3.70350    11     9    20    40
 C    -1.36020   3.66190   1.14850    12    82    62    13
 C    -0.71470   3.13320   2.30730    13    14    12    17
 C     0.71190   3.12960   2.30920    14     5    13    15
 C     1.43450   2.11160   3.01450    15    16    19    14
 C     2.71500   1.76780   2.49030    16     2     8    15
 C    -1.43920   2.10850   3.01030    17    18    84    13
 C    -0.71820   1.07290   3.67950    18    20    19    17
 C     0.70990   1.07920   3.68310    19    10    15    18
 C    -1.34960  -0.20190   3.71970    20    11    78    18
 C     2.55720  -1.76530   2.60960    21     6    29    22
 C     3.20860  -2.07910   1.40540    22    26    21    23
 C     3.91250  -1.06200   0.70740    23     7    22    24
 C     3.90900  -1.06420  -0.73350    24    25    31    23
 C     3.93100   0.20610  -1.36500    25     3    34    24
 C     2.56040  -3.07020   0.67440    26    30    22    28
 C     0.71470  -3.32460   2.27420    27    29    28    41
 C     1.37390  -3.67730   1.10090    28    36    27    26
 C     1.37000  -2.35030   3.01280    29     9    21    27
 C     2.55790  -3.07750  -0.71230    30    26    31    37
 C     3.20300  -2.07990  -1.43390    31    30    32    24
 C     2.54920  -1.75050  -2.63110    32    33    39    31
 C     2.53350  -0.46760  -3.12840    33    34    46    32
 C     3.21540   0.49290  -2.51730    34    33    45    25
 C    -0.67890  -4.04790  -0.00910    35    36    42    58
 C     0.68270  -4.04710  -0.02190    36    35    37    28
 C     1.37770  -3.68600  -1.14430    37    36    38    30
 C     0.70670  -3.32470  -2.30900    38    39    37    59
 C     1.36000  -2.33380  -3.03510    39    56    32    38
 C    -1.36820  -2.34960   3.01130    40    11    79    41
 C    -0.70750  -3.32750   2.27540    41    40    42    27
 C    -1.38040  -3.68620   1.11020    42    35    41    81
 C     2.55540   3.25910  -0.69640    43    44    54     4
 C     3.25180   2.32940  -1.37500    44    43    45     3
 C     2.71290   1.77960  -2.50110    45    44    34    49
 C     1.34000  -0.18350  -3.74320    46    56    33    48
 C    -0.72090   1.08680  -3.67660    47    57    51    48
 C     0.70990   1.09300  -3.68480    48    46    49    47
 C     1.42870   2.13010  -3.01470    49    45    48    53
 C    -2.72030   1.76340  -2.47370    50    65    70    51
 C    -1.44080   2.11730  -3.00090    51    47    50    52
 C    -0.72330   3.14080  -2.29800    52    63    53    51
 C     0.70500   3.14500  -2.30280    53    54    52    49
 C     1.33720   3.66660  -1.13660    54    43    61    53
 C    -0.67340  -1.38170  -3.72570    55    56    57    60
 C     0.65960  -1.37330  -3.73320    56    55    46    39
 C    -1.35300  -0.19060  -3.72510    57    55    68    47
 C    -1.37400  -3.68450  -1.13640    58    35    59    71
 C    -0.71360  -3.32380  -2.31150    59    60    58    38
 C    -1.37770  -2.34650  -3.03820    60    55    76    59
 C     0.64310   4.01340   0.00420    61    62    54     5
 C    -0.66920   4.00950   0.00110    62    61    63    12
 C    -1.36770   3.65970  -1.13640    63    66    62    52
 C    -3.99710   1.37490  -0.66940    64    67    69    65
 C    -3.26850   2.32350  -1.35400    65    66    50    64
 C    -2.58230   3.25970  -0.67650    66    65    63    82
 C    -3.99080   1.38030   0.68280    67    64    72    83
 C    -2.54820  -0.48360  -3.11750    68    70    57    76
 C    -3.94390   0.19640  -1.35450    69    64    70    74
 C    -3.22630   0.47600  -2.50130    70    68    69    50
 C    -2.56260  -3.08400  -0.69710    71    81    75    58
 C    -3.93890   0.19520   1.35780    72    67    77    73
 C    -3.91520  -1.07190   0.71630    73    72    80    74
 C    -3.91460  -1.07520  -0.72590    74    69    75    73
 C    -3.21000  -2.09240  -1.43020    75    71    76    74
 C    -2.56630  -1.77270  -2.63410    76    68    60    75
 C    -3.22500   0.47220   2.51320    77    78    84    72
 C    -2.54640  -0.49220   3.11450    78    77    20    79
 C    -2.56270  -1.77530   2.61740    79    78    40    80
 C    -3.21260  -2.09710   1.41370    80    81    79    73
 C    -2.57020  -3.09010   0.68890    81    71    80    42
 C    -2.58480   3.26210   0.69930    82    83    12    66
 C    -3.26970   2.32420   1.37350    83    82    84    67
 C    -2.72330   1.76370   2.48670    84    83    77    17
