    98
C98-C1-179                                                                      
 C    -2.05680   3.89240  -0.50360     1     4    65     2
 C    -3.10070   3.03430  -0.83170     2     1    59     3
 C    -3.78390   2.36040   0.25410     3     6    14     2
 C    -1.63820   4.09830   0.78860     4     5     7     1
 C    -2.20320   3.41930   1.76900     5     4     6     8
 C    -3.25650   2.59400   1.53660     6     5    16     3
 C    -0.32320   4.40870   0.84520     7     4    68    10
 C    -1.42710   2.96100   2.81030     8    20     5     9
 C    -0.05170   3.17000   2.89440     9     8    10    22
 C     0.53730   3.98740   1.87600    10    12     7     9
 C     2.59050   2.83000   2.17130    11    98    12    21
 C     1.87230   3.79850   1.50360    12    11    10    13
 C     2.25170   3.96540   0.16370    13    67    95    12
 C    -4.39740   1.09680   0.07100    14    15     3    18
 C    -4.34030   0.59630  -1.22780    15    61    30    14
 C    -3.22250   1.65580   2.53270    16    17     6    20
 C    -3.80940   0.43580   2.36450    17    16    19    18
 C    -4.43470   0.12950   1.13300    18    28    17    14
 C    -3.17020  -0.56230   3.08570    19    26    17    25
 C    -2.05980   1.86210   3.29580    20     8    24    16
 C     2.01710   2.00720   3.12860    21    34    11    22
 C     0.68900   2.11130   3.52190    22    21     9    23
 C     0.06360   0.90540   4.00870    23    24    22    36
 C    -1.36200   0.83690   3.90780    24    25    20    23
 C    -1.99740  -0.37640   3.80540    25    38    24    19
 C    -3.15910  -1.84890   2.64650    26    27    31    19
 C    -3.74480  -2.17950   1.49640    27    26    28    56
 C    -4.38700  -1.22740   0.76090    28    29    27    18
 C    -4.28050  -1.65480  -0.52040    29    30    28    43
 C    -4.28580  -0.76020  -1.50220    30    29    42    15
 C    -2.02170  -2.45970   3.04540    31    26    32    38
 C    -1.43580  -3.45760   2.28220    32    33    31    55
 C    -0.09570  -3.55770   2.48700    33    58    32    39
 C     2.73150   0.82140   3.15020    34    21    89    35
 C     2.17970  -0.38660   3.55420    35    34    93    36
 C     0.81190  -0.35330   4.01560    36    37    35    23
 C     0.06920  -1.56850   3.90100    37    38    39    36
 C    -1.29650  -1.54390   3.79640    38    25    37    31
 C     0.64130  -2.66500   3.28960    39    94    37    33
 C    -2.12840   0.41110  -3.79740    40    41    48    62
 C    -3.24110   0.23310  -3.09310    41    40    42    61
 C    -3.56430  -1.00520  -2.61880    42    30    41    45
 C    -3.49570  -2.79190  -0.60070    43    56    29    44
 C    -2.68050  -3.06900  -1.69750    44    43    50    45
 C    -2.73710  -2.13030  -2.78270    45    47    42    44
 C    -0.47910  -2.64820  -3.32700    46    47    54    69
 C    -1.59520  -1.90880  -3.56820    47    46    48    45
 C    -1.31140  -0.63860  -4.05570    48    40    71    47
 C    -1.10340  -4.18500  -0.06400    49    57    55    50
 C    -1.48200  -3.79820  -1.41480    50    54    44    49
 C     2.56200  -3.71910  -0.40590    51    88    82    52
 C     1.28930  -4.16390  -0.75460    52    53    51    57
 C     0.89600  -3.74870  -2.00020    53    54    52    84
 C    -0.42670  -3.58360  -2.30790    54    53    46    50
 C    -1.97980  -3.79450   1.00810    55    56    32    49
 C    -3.15800  -3.13440   0.68050    56    43    27    55
 C     0.29340  -4.35610   0.23520    57    58    52    49
 C     0.73440  -4.05020   1.53450    58    33    86    57
 C    -2.98410   2.43120  -2.10890    59    61     2    60
 C    -1.78660   2.61670  -2.90890    60    62    64    59
 C    -3.66950   1.23000  -2.25130    61    41    15    59
 C    -1.39980   1.55920  -3.72190    62    40    72    60
 C     0.65660   3.12960  -2.83050    63    66    74    64
 C    -0.72370   3.43670  -2.49140    64    65    60    63
 C    -0.94660   4.11130  -1.29220    65    68     1    64
 C     1.62760   3.59270  -1.94930    66    80    67    63
 C     1.32750   4.25560  -0.79010    67    68    13    66
 C     0.07220   4.49020  -0.46100    68    67     7    65
 C     0.81030  -2.17720  -3.56240    69    84    46    70
 C     1.09390  -0.86980  -3.96970    70    71    69    76
 C    -0.03640  -0.12920  -4.20860    71    70    72    48
 C    -0.08440   1.23210  -4.00550    72    74    71    62
 C     2.24590   1.22310  -3.34970    73    79    74    76
 C     1.00410   1.94790  -3.56060    74    72    63    73
 C     3.20510  -1.03740  -2.78570    75    77    83    76
 C     2.28680  -0.22730  -3.54330    76    70    75    73
 C     4.04980  -0.37450  -1.89790    77    78    85    75
 C     4.02960   0.97900  -1.72350    78    77    79    96
 C     3.16070   1.79890  -2.42180    79    78    80    73
 C     2.82380   2.95970  -1.74800    80    66    79    95
 C     4.10260  -2.14540  -0.35130    81    85    82    87
 C     3.32580  -2.88100  -1.20160    82    81    51    83
 C     2.87080  -2.37340  -2.41140    83    84    82    75
 C     1.66180  -2.88640  -2.78720    84    69    83    53
 C     4.47450  -0.92210  -0.70770    85    81    90    77
 C     1.98490  -3.57380   1.82510    86    88    58    94
 C     3.81040  -2.42900   0.95520    87    88    81    92
 C     2.90200  -3.43080   0.88480    88    86    87    51
 C     3.74460   0.91660   2.20680    89    91    98    34
 C     4.62030   0.04560   0.23150    90    85    96    91
 C     4.27130  -0.18870   1.57630    91    89    92    90
 C     3.80160  -1.45140   1.96800    92    91    87    93
 C     2.76800  -1.55770   2.96050    93    94    92    35
 C     1.92720  -2.66500   2.85740    94    39    86    93
 C     3.23110   3.22240  -0.43670    95    97    13    80
 C     4.42580   1.24390  -0.40420    96    97    90    78
 C     3.98180   2.33650   0.26940    97    96    95    98
 C     3.63830   2.14850   1.59340    98    11    89    97
