    98
C98-C1-112                                                                      
 C    -4.36720  -1.04950   1.83310     1    20     3     2
 C    -3.68650  -0.37210   2.80150     2     4     1    11
 C    -4.91900  -0.37620   0.79710     3     1    31    60
 C    -3.56530   0.95710   2.74810     4     2     5    63
 C    -2.41430   1.55550   3.14600     5     4    13     9
 C     1.09090   0.68910   3.74000     6     7     8    27
 C     2.31560   1.21990   3.31730     7    17    91     6
 C    -0.06660   1.51300   3.60350     8     9     6    16
 C    -1.31720   0.86060   3.67300     9     5     8    10
 C    -1.43180  -0.58380   3.70600    10    11    28     9
 C    -2.63550  -1.12450   3.23670    11     2    21    10
 C    -1.09540   3.33420   2.20520    12    13    69    16
 C    -2.29740   2.70840   2.38360    13    12     5    62
 C     1.43680   3.95570   1.28310    14    68    15    95
 C     1.33940   3.19810   2.44090    15    17    14    16
 C     0.05720   2.80610   2.90460    16    15    12     8
 C     2.44620   2.42200   2.68310    17     7    15    98
 C    -2.60090  -3.63090   0.23430    18    19    37    24
 C    -3.67590  -2.81100   0.38550    19    18    20    30
 C    -3.75430  -2.23440   1.65080    20     1    19    21
 C    -2.70840  -2.32520   2.57320    21    23    11    20
 C    -0.35100  -2.71440   2.95410    22    23    26    28
 C    -1.60110  -3.09470   2.39290    23    21    24    22
 C    -1.62220  -3.83440   1.22440    24    44    23    18
 C     2.02720  -2.64500   2.58680    25    29    26    45
 C     0.83220  -3.29100   2.35890    26    25    43    22
 C     0.98050  -0.75370   3.73130    27    29    28     6
 C    -0.27000  -1.40720   3.63100    28    27    10    22
 C     2.10330  -1.45200   3.26860    29    92    25    27
 C    -4.14480  -2.09620  -0.75010    30    31    19    33
 C    -4.78680  -0.87370  -0.47090    31     3    32    30
 C    -4.66040   0.22390  -1.28100    32    35    31    59
 C    -3.38030  -2.18430  -1.96830    33    34    38    30
 C    -3.28850  -1.03080  -2.73940    34    35    33    53
 C    -3.91680   0.13250  -2.38660    35    32    51    34
 C    -0.74310  -4.27850  -0.69780    36    39    37    44
 C    -1.98400  -3.81580  -0.97420    37    36    18    38
 C    -2.27760  -3.04330  -2.10760    38    37    33    41
 C     0.24240  -4.09900  -1.55280    39    36    42    40
 C     0.05440  -3.30830  -2.65910    40    70    39    41
 C    -1.14950  -2.71300  -2.95330    41    40    52    38
 C     1.51420  -4.05310  -1.11570    42    39    83    47
 C     0.78960  -4.07950   1.16380    43    44    47    26
 C    -0.47970  -4.26800   0.64560    44    24    36    43
 C     3.13540  -2.72190   1.74220    45    46    87    25
 C     3.07180  -3.38240   0.53680    46    45    47    48
 C     1.88480  -4.05900   0.24380    47    46    42    43
 C     3.79350  -2.75290  -0.48210    48    82    89    46
 C    -2.01150   3.06940  -2.31550    49    50    65    57
 C    -3.16300   2.37880  -2.11930    50    49    51    58
 C    -3.19260   1.18450  -2.82510    51    35    54    50
 C    -1.03080  -1.45060  -3.60740    52    53    41    55
 C    -2.16280  -0.67710  -3.47520    53    54    52    34
 C    -2.10830   0.68880  -3.53430    54    53    56    51
 C     0.25710  -0.78870  -3.84130    55    71    72    52
 C    -0.92110   1.36110  -3.69070    56    54    57    72
 C    -0.94740   2.61010  -3.10830    57    75    56    49
 C    -3.83650   2.49220  -0.88090    58    59    50    61
 C    -4.62940   1.38540  -0.52510    59    60    32    58
 C    -4.81430   0.99220   0.76320    60    63    59     3
 C    -3.18120   3.23310   0.17190    61    62    66    58
 C    -3.34580   2.71610   1.45880    62    63    61    13
 C    -4.13980   1.65310   1.73070    63    60    62     4
 C    -0.17170   4.02670  -1.66240    64    67    65    75
 C    -1.48280   3.88160  -1.35360    65    64    49    66
 C    -1.98010   3.92570  -0.04150    66    61    65    69
 C     0.70930   4.31550  -0.72800    67    64    81    68
 C     0.32490   4.31430   0.58300    68    14    67    69
 C    -0.97050   4.06030   0.98020    69    68    12    66
 C     1.27490  -2.76400  -2.94840    70    40    83    71
 C     1.45200  -1.49080  -3.51450    71    70    55    76
 C     0.31910   0.66840  -3.85160    72    56    55    73
 C     1.54850   1.36310  -3.47350    73    77    74    72
 C     1.45900   2.68510  -2.87980    74    75    80    73
 C     0.18960   3.21870  -2.71780    75    57    64    74
 C     2.66690  -0.81830  -3.19620    76    77    85    71
 C     2.71490   0.59970  -3.16020    77    76    78    73
 C     3.67420   1.17020  -2.28180    78    79    86    77
 C     3.50580   2.38710  -1.67460    79    80    78    96
 C     2.42060   3.16120  -1.94630    80    79    81    74
 C     1.99450   3.94620  -0.86760    81    67    95    80
 C     3.28480  -2.68680  -1.75450    82    83    85    48
 C     2.17110  -3.31270  -2.05360    83    82    42    70
 C     4.41580  -0.88180  -1.46400    84    86    85    89
 C     3.57400  -1.49530  -2.33560    85    82    84    76
 C     4.48400   0.44360  -1.43760    86    84    93    78
 C     3.90850  -1.58950   1.92720    87    92    45    88
 C     4.66250  -0.97350   0.92580    88    89    87    94
 C     4.53890  -1.61090  -0.29460    89    48    88    84
 C     4.14380   1.11840   1.98920    90    91    98    94
 C     3.38320   0.46100   2.91670    91    92    90     7
 C     3.26920  -0.85810   2.88470    92    91    29    87
 C     4.71480   1.11580  -0.26850    93    86    96    94
 C     4.77360   0.43500   0.94870    94    90    93    88
 C     2.51180   3.81810   0.39950    95    97    81    14
 C     4.12350   2.34650  -0.41660    96    93    97    79
 C     3.57860   3.02200   0.65610    97    95    98    96
 C     3.56560   2.35620   1.85110    98    97    90    17
