    98
C98-C1-118                                                                      
 C     1.70030  -4.03540  -0.34300     1    10    61     2
 C     1.79970  -3.55330  -1.67400     2     3     1    11
 C     2.92520  -2.74770  -1.94160     3     2     4    76
 C     2.78370  -1.70430  -2.88750     4     3     5     7
 C     3.63580  -0.58870  -2.69890     5     6    52     4
 C     3.25240   0.67430  -3.02820     6     9     5    21
 C     1.50840  -1.47810  -3.50860     7     8    12     4
 C     1.23010  -0.14890  -3.85130     8     9    42     7
 C     2.07130   0.88830  -3.57820     9     6     8    22
 C     0.52990  -4.30310   0.26680    10    13     1    16
 C     0.55410  -3.37230  -2.34900    11    14     2    12
 C     0.36240  -2.29520  -3.27710    12     7    11    40
 C    -0.59800  -4.24880  -0.38970    13    10    17    14
 C    -0.59920  -3.80610  -1.68820    14    38    13    11
 C    -0.56060  -3.49840   2.25070    15    16    68    18
 C     0.57040  -3.93890   1.59100    16    66    10    15
 C    -1.76940  -3.97140   0.22570    17    13    90    18
 C    -1.83180  -3.58610   1.57440    18    17    95    15
 C     3.28060   3.15820  -0.56110    19    26    20    45
 C     3.06790   2.74570  -1.85720    20    19    21    23
 C     3.78950   1.59580  -2.17540    21     6    44    20
 C     1.35590   2.02430  -3.34060    22    28     9    23
 C     1.79040   2.99650  -2.44380    23    22    24    20
 C     0.73950   3.69560  -1.77870    24    23    25    30
 C     1.05270   4.09460  -0.44390    25    27    26    24
 C     2.27330   3.78800   0.12120    26    19    25    49
 C     0.02350   4.18090   0.46840    27    33    25    51
 C     0.05120   1.73990  -3.60770    28    22    29    42
 C    -1.00320   2.44780  -3.08940    29    28    36    30
 C    -0.65390   3.46900  -2.12120    30    32    29    24
 C    -2.90280   3.16590  -1.24460    31    32    37    82
 C    -1.66050   3.74660  -1.15850    32    31    33    30
 C    -1.27710   4.05100   0.13320    33    27    32    84
 C    -3.39920  -0.33530  -2.91490    34    87    43    35
 C    -2.33910   0.37940  -3.47400    35    34    41    36
 C    -2.25470   1.78480  -3.10480    36    37    29    35
 C    -3.22530   2.25010  -2.21960    37    88    31    36
 C    -1.85720  -3.34670  -1.89510    38    14    39    90
 C    -2.09330  -2.34920  -2.80930    39    38    43    40
 C    -0.98790  -1.75310  -3.47500    40    39    41    12
 C    -1.16890  -0.35620  -3.80370    41    42    35    40
 C    -0.02930   0.38200  -3.93970    42    41     8    28
 C    -3.25940  -1.65770  -2.55750    43    34    39    92
 C     4.59800   0.89810  -1.29640    44    52    21    46
 C     4.07710   2.45510   0.33820    45    47    46    19
 C     4.74450   1.27880   0.03150    46    45    44    54
 C     3.48860   2.64190   1.55900    47    48    49    45
 C     3.47780   1.65960   2.47560    48    47    53    70
 C     2.40550   3.44890   1.46280    49    47    50    26
 C     1.31370   3.33890   2.30860    50    51    49    69
 C     0.14530   3.79210   1.79920    51    50    71    27
 C     4.51760  -0.43040  -1.65980    52    56     5    44
 C     4.11200   0.48480   2.20870    53    48    57    54
 C     4.78690   0.25310   1.00890    54    55    53    46
 C     4.72740  -1.06100   0.58600    55    56    54    59
 C     4.60060  -1.39880  -0.74720    56    52    76    55
 C     3.38240  -0.48480   2.88850    57    58    62    53
 C     3.32680  -1.78690   2.46980    58    57    59    65
 C     4.05530  -2.03880   1.29760    59    60    55    58
 C     3.61180  -2.95000   0.38560    60    61    76    59
 C     2.54460  -3.66900   0.66150    61    60     1    66
 C     2.31190   0.11350   3.52760    62    70    57    63
 C     1.12210  -0.53890   3.81920    63    62    74    64
 C     1.02120  -1.93100   3.43280    64    65    68    63
 C     2.14380  -2.51590   2.74980    65    66    58    64
 C     1.83540  -3.51330   1.83570    66    16    61    65
 C    -1.38700  -1.65860   3.45620    67    68    94    75
 C    -0.30010  -2.46690   3.20600    68    67    15    64
 C     1.25030   2.27950   3.25210    69    70    50    73
 C     2.37420   1.46440   3.27350    70    48    62    69
 C    -1.07420   3.37620   2.23480    71    51    84    72
 C    -1.22270   2.34350   3.16410    72    71    78    73
 C    -0.00430   1.71900   3.63320    73    69    72    74
 C    -0.03010   0.30310   3.93690    74    75    63    73
 C    -1.25270  -0.31590   3.80400    75    79    74    67
 C     3.85330  -2.53150  -0.88850    76    60    56     3
 C    -3.49140   2.01220   2.12620    77    80    83    78
 C    -2.46360   1.66330   3.07330    78    79    72    77
 C    -2.41530   0.32360   3.44460    79    93    75    78
 C    -4.37390   1.00220   1.70530    80    96    85    77
 C    -4.54150   1.87120  -0.46690    81    85    82    88
 C    -3.69530   2.87590  -0.12410    82    81    83    31
 C    -3.19380   3.00990   1.16790    83    84    82    77
 C    -1.99600   3.63600   1.25030    84    83    71    33
 C    -4.91200   0.93880   0.44340    85    81    80    89
 C    -4.76210  -0.73190  -1.19740    86    89    92    87
 C    -4.35220   0.20680  -2.10210    87    88    34    86
 C    -4.25440   1.49570  -1.74880    88    87    37    81
 C    -5.04100  -0.38090   0.08530    89    86    97    85
 C    -2.62340  -3.50770  -0.72950    90    91    17    38
 C    -3.71730  -2.75850  -0.43010    91    90    92    98
 C    -4.08930  -1.88600  -1.44840    92    86    91    43
 C    -3.26550  -0.62310   2.94830    93    96    94    79
 C    -2.63510  -1.82940   2.88440    94    93    67    95
 C    -2.92710  -2.76480   1.88780    95    94    18    98
 C    -4.24630  -0.30230   2.10350    96    93    80    97
 C    -4.61050  -1.17810   1.11120    97    89    96    98
 C    -3.93250  -2.39100   0.92810    98    97    91    95
