    98
C98-C2-189                                                                      
 C    -2.81430   3.57510  -0.08930     1     2     5    60
 C    -3.73650   2.64140   0.29370     2    56     1    15
 C    -0.25580   4.51670  -0.53500     3     4     6    61
 C    -0.70410   4.44440   0.70680     4     3     5     7
 C    -1.96180   4.01090   0.93600     5     4    13     1
 C     1.06620   4.35790  -0.76870     6     3    67     9
 C     0.14420   4.08620   1.73110     7    17     4     8
 C     1.49780   3.83110   1.55220     8     7    19     9
 C     2.01740   4.04260   0.22460     9    11     6     8
 C     3.74090   2.47110   0.67580    10    11    98    18
 C     3.13540   3.32310  -0.21770    11    10     9    12
 C     3.20150   2.89050  -1.55060    12    66    95    11
 C    -1.93890   3.44120   2.18800    13    14     5    17
 C    -2.83510   2.47540   2.51410    14    13    15    16
 C    -3.76380   2.11020   1.58420    15    14    25     2
 C    -2.35690   1.48150   3.32560    16    14    22    23
 C    -0.62760   3.43820   2.65000    17     7    21    13
 C     3.21500   2.22850   1.93610    18    39    10    19
 C     2.06640   2.83870   2.41820    19    18     8    20
 C     1.25220   2.06950   3.34850    20    21    19    41
 C    -0.11820   2.42020   3.44010    21    22    17    20
 C    -1.05180   1.45110   3.77050    22    43    16    21
 C    -2.81390   0.18190   3.23640    23    28    24    16
 C    -3.78040  -0.20780   2.33250    24    23    25    31
 C    -4.24150   0.83030   1.51080    25    26    15    24
 C    -4.58240   0.61410   0.21610    26    27    25    56
 C    -4.57190  -0.62550  -0.24790    27    26    47    32
 C    -1.81540  -0.65170   3.66010    28    23    29    43
 C    -1.71420  -1.96890   3.24560    29    28    37    30
 C    -2.69880  -2.45240   2.28800    30    34    31    29
 C    -3.71730  -1.53530   1.83980    31    32    24    30
 C    -4.19340  -1.70120   0.52830    32    53    27    31
 C    -1.02400  -4.02390   1.57140    33    38    81    34
 C    -2.30480  -3.50940   1.39440    34    33    52    30
 C     1.98000  -2.04870   3.23800    35    87    44    36
 C     0.73170  -1.66960   3.72050    36    35    42    37
 C    -0.40030  -2.49470   3.34050    37    38    29    36
 C    -0.12790  -3.57050   2.50160    38    88    33    37
 C     3.60720   0.96810   2.30490    39    18    40    91
 C     2.84020   0.19300   3.16210    40    44    39    41
 C     1.62360   0.69750   3.68400    41    40    42    20
 C     0.58620  -0.27990   3.98730    42    43    36    41
 C    -0.71810   0.14710   4.00110    43    22    42    28
 C     2.99200  -1.16990   2.96100    44    35    40    94
 C    -2.80300  -0.19020  -3.25730    45    57    51    46
 C    -3.77150   0.20680  -2.35890    46    45    47    55
 C    -4.22770  -0.84170  -1.54490    47    27    48    46
 C    -3.75540  -2.12670  -1.61470    48    50    47    53
 C    -1.93690  -3.45220  -2.19440    49    50    54    68
 C    -2.81980  -2.48080  -2.54380    50    49    48    51
 C    -2.34370  -1.48590  -3.34870    51    50    70    45
 C    -2.81430  -3.59540   0.06580    52    53    54    34
 C    -3.73420  -2.66120  -0.32400    53    32    52    48
 C    -1.95840  -4.03860  -0.94910    54    82    49    52
 C    -3.71440   1.53380  -1.86750    55    56    46    59
 C    -4.20310   1.69050  -0.56350    56     2    26    55
 C    -1.80130   0.64870  -3.67130    57    45    58    71
 C    -1.70140   1.96550  -3.25780    58    57    63    59
 C    -2.69150   2.44990  -2.30740    59    60    55    58
 C    -2.29270   3.50600  -1.41540    60    61     1    59
 C    -1.01640   4.02390  -1.58490    61    64     3    60
 C     0.75050   1.66560  -3.71610    62    65    73    63
 C    -0.38630   2.49090  -3.34580    63    64    58    62
 C    -0.11700   3.57000  -2.50890    64    61    67    63
 C     1.99610   2.04450  -3.23050    65    79    66    62
 C     2.16870   3.11990  -2.40260    66    67    12    65
 C     1.13680   3.85110  -2.03710    67    66     6    64
 C    -0.61680  -3.44360  -2.64600    68    85    69    49
 C    -0.10660  -2.42180  -3.43780    69    70    68    75
 C    -1.03630  -1.45290  -3.77820    70    71    51    69
 C    -0.70040  -0.14880  -4.00440    71    70    73    57
 C     1.63820  -0.70670  -3.67430    72    78    73    75
 C     0.60590   0.27550  -3.98340    73    71    62    72
 C     2.07780  -2.84660  -2.40650    74    76    84    75
 C     1.26570  -2.07750  -3.33820    75    69    74    72
 C     3.22570  -2.23410  -1.92170    76    77    89    74
 C     3.61390  -0.97090  -2.29490    77    76    78    96
 C     2.85230  -0.19270  -3.15240    78    79    77    72
 C     3.00620   1.16780  -2.95620    79    65    78    95
 C     1.06150  -4.35160   0.77070    80    81    88    83
 C    -0.25820  -4.52190   0.52390    81    82    80    33
 C    -0.70210  -4.46570  -0.72200    82    81    54    85
 C     2.01970  -4.04610  -0.22190    83    90    80    84
 C     1.50090  -3.84400  -1.55120    84    85    74    83
 C     0.15470  -4.10700  -1.73680    85    68    82    84
 C     3.19290  -2.89180   1.55380    86    87    94    90
 C     2.15940  -3.11970   2.40510    87    88    86    35
 C     1.12870  -3.84980   2.03650    88    87    80    38
 C     3.75550  -2.47600  -0.66290    89    90    92    76
 C     3.13890  -3.32560   0.21750    90    89    83    86
 C     4.38770   0.42540   1.28910    91    98    93    39
 C     4.43150  -1.33800  -0.25910    92    96    89    93
 C     4.44280  -0.92590   1.06480    93    94    91    92
 C     3.77440  -1.71350   1.94100    94    93    86    44
 C     3.78410   1.71110  -1.93360    95    97    12    79
 C     4.39300  -0.42470  -1.27960    96    92    97    77
 C     4.44940   0.92590  -1.04900    97    95    96    98
 C     4.42850   1.33970   0.26990    98    91    97    10
