    98
C98-C1-245                                                                      
 C     2.88570   1.37090   2.95280     1     2    10     4
 C     1.95000   2.34220   3.10740     2     1     3     7
 C     2.07300   3.35880   2.16610     3    54     6     2
 C     3.79630   1.32160   1.87890     4    25     5     1
 C     3.80760   2.24980   0.87120     5     4     6    23
 C     2.94470   3.31130   1.09240     6    60     3     5
 C     0.67520   1.98610   3.64150     7     8     2    12
 C    -0.36560   2.79880   3.21050     8     9    53     7
 C    -1.66200   2.37080   3.10420     9     8    14    43
 C     2.64230   0.10280   3.37690    10     1    17    11
 C     1.40940  -0.34190   3.91330    11    10    18    12
 C     0.35270   0.63010   4.01710    12    11     7    13
 C    -1.03340   0.18050   3.92950    13    15    12    14
 C    -2.06910   1.09000   3.44370    14     9    27    13
 C    -1.26680  -1.22580   3.76270    15    16    19    13
 C    -2.46270  -1.60050   3.13290    16    26    36    15
 C     3.48800  -0.68820   2.63310    17    20    25    10
 C     1.13700  -1.72130   3.73000    18    19    21    11
 C    -0.19840  -2.16120   3.65180    19    18    41    15
 C     3.20690  -1.96290   2.45940    20    17    21    98
 C     2.08790  -2.49080   3.01750    21    20    89    18
 C     3.38520   2.52180  -1.44410    22    76    59    23
 C     4.07490   1.79430  -0.45230    23    22     5    94
 C     4.43910  -0.50140   0.38810    24    25    97    94
 C     4.13180   0.02830   1.65430    25     4    17    24
 C    -3.39820  -0.72120   2.66060    26    16    29    27
 C    -3.25480   0.65090   2.77080    27    26    14    28
 C    -3.87590   1.43630   1.73540    28    42    31    27
 C    -4.04340  -1.34600   1.60880    29    30    37    26
 C    -4.54980  -0.61950   0.62320    30    29    31    33
 C    -4.49040   0.73210   0.68400    31    30    44    28
 C    -3.12440  -2.24910  -2.15340    32    34    85    49
 C    -4.44520  -1.06940  -0.66680    33    30    47    34
 C    -3.81090  -2.26990  -0.96590    34    32    33    40
 C    -1.57070  -3.53690   2.17340    35    36    41    38
 C    -2.59300  -2.73190   2.34780    36    35    37    16
 C    -3.48870  -2.55890   1.35260    37    36    29    40
 C    -1.33470  -4.13380   0.94850    38    81    35    39
 C    -2.12870  -3.88200  -0.16180    39    38    84    40
 C    -3.30200  -3.09020   0.05670    40    34    37    39
 C    -0.42280  -3.31260   2.84820    41    35    90    19
 C    -3.32120   2.67190   1.38420    42    43    28    46
 C    -2.26240   3.13450   2.09980    43    42    52     9
 C    -4.42930   1.14310  -0.61990    44    45    47    31
 C    -3.80900   2.27370  -0.93200    45    44    46    68
 C    -3.30200   3.06880   0.03660    46    45    50    42
 C    -4.34420   0.06480  -1.45240    47    44    33    48
 C    -3.58010   0.11210  -2.61080    48    49    47    67
 C    -3.02190  -1.09960  -2.94420    49    69    48    32
 C    -2.27870   3.79660  -0.53170    50    51    46    61
 C    -1.25220   4.31410   0.19980    51    50    56    52
 C    -1.30910   3.97340   1.56320    52    53    43    51
 C    -0.19080   3.81730   2.30120    53    54    52     8
 C     0.99230   4.07670   1.76200    54    53     3    57
 C     0.18730   4.00050  -1.75960    55    58    63    56
 C     0.00010   4.47910  -0.41230    56    57    51    55
 C     1.11030   4.42350   0.44290    57    60    54    56
 C     1.48700   3.57930  -2.06390    58    66    59    55
 C     2.53210   3.56370  -1.16940    59    60    22    58
 C     2.33200   3.97380   0.07050    60    59    57     6
 C    -2.09950   3.33880  -1.83680    61    68    63    50
 C    -0.63370   2.30880  -3.44510    62    65    63    71
 C    -0.87310   3.36280  -2.48280    63    61    55    62
 C     1.07500   0.70350  -4.07880    64    72    65    74
 C     0.73470   1.97580  -3.67750    65    64    66    62
 C     1.74950   2.60180  -2.97690    66    58    65    76
 C    -2.87500   1.31000  -2.95530    67    68    71    48
 C    -3.05380   2.37630  -2.07740    68    45    61    67
 C    -1.87550  -1.17400  -3.65560    69    49    70    78
 C    -1.19100  -0.02990  -4.06270    70    72    69    71
 C    -1.63690   1.26630  -3.66630    71    70    67    62
 C     0.14120  -0.27640  -4.25610    72    64    70    80
 C     2.03610  -1.23460  -3.71060    73    77    80    74
 C     2.27730   0.09640  -3.73350    74    73    75    64
 C     3.23830   0.67240  -2.92020    75    76    74    93
 C     2.94760   1.96510  -2.60710    76    75    22    66
 C     2.71740  -2.02260  -2.88790    77    73    95    86
 C    -1.25590  -2.38590  -3.33970    78    79    85    69
 C     0.08370  -2.58850  -3.46320    79    78    80    87
 C     0.74400  -1.49820  -4.00570    80    73    72    79
 C     0.00910  -4.36220   0.90430    81    38    90    82
 C     0.75450  -4.35510  -0.27660    82    81    92    83
 C     0.01920  -4.07420  -1.48560    83    87    82    84
 C    -1.41740  -3.85180  -1.40400    84    85    39    83
 C    -1.99410  -3.01640  -2.36820    85    78    32    84
 C     2.10270  -3.11770  -2.32480    86    91    77    87
 C     0.75300  -3.44090  -2.55090    87    86    79    83
 C     2.59370  -3.58250   1.12570    88    89    98    92
 C     1.77620  -3.54540   2.21230    89    90    88    21
 C     0.53230  -3.93850   2.11170    90    89    41    81
 C     2.76160  -3.35140  -1.15770    91    86    92    96
 C     2.12420  -3.97850  -0.12530    92    91    88    82
 C     3.96930  -0.12700  -1.99590    93    95    75    94
 C     4.36990   0.41140  -0.72500    94    93    23    24
 C     3.67260  -1.49970  -2.05150    95    96    77    93
 C     3.73140  -2.34360  -0.98400    96    95    97    91
 C     4.12210  -1.88430   0.24720    97    96    98    24
 C     3.53520  -2.58360   1.28900    98    20    88    97
