    98
C98-C2-130                                                                      
 C    -1.93550   3.09650   2.23550     1     7    69     2
 C    -2.57290   1.96690   2.72800     2     1    67    10
 C    -2.17400  -0.35230   3.39590     3     4    10    14
 C    -3.41230  -0.63570   2.76260     4     5    68     3
 C    -3.71710  -1.83880   2.19580     5     6    22     4
 C    -2.80470  -2.80730   2.22110     6     5    23    15
 C    -0.60900   3.36190   2.40530     7     1     8    73
 C     0.24680   2.51950   3.09660     8     7    18     9
 C    -0.31530   1.26570   3.58300     9    12    10     8
 C    -1.72850   1.00350   3.40500    10     3     9     2
 C     1.94460   0.40150   3.48080    11    19    32    12
 C     0.59470   0.15060   3.72390    12    11    13     9
 C     0.17070  -1.21740   3.58730    13    14    12    34
 C    -1.22330  -1.43370   3.45240    14    15    13     3
 C    -1.60450  -2.63240   2.83310    15     6    36    14
 C     3.23380   3.18880   1.04190    16    95    80    17
 C     2.06180   3.55340   1.71870    17    75    16    18
 C     1.62210   2.68730   2.78400    18    19     8    17
 C     2.44530   1.61530   3.05760    19    96    18    11
 C    -4.30950  -2.44750   0.01240    20    21    40    22
 C    -3.35840  -3.41600   0.04490    21    23    20    25
 C    -4.52980  -1.66910   1.11350    22    48     5    20
 C    -2.64180  -3.63820   1.16280    23    24    21     6
 C    -1.36120  -4.03240   1.12240    24    23    27    36
 C    -2.69630  -3.46120  -1.14740    25    21    41    26
 C    -1.38510  -3.87830  -1.27320    26    25    43    27
 C    -0.68780  -4.28220  -0.06530    27    30    24    26
 C     2.69710  -3.47310   1.11090    28    88    37    29
 C     1.38510  -3.89120   1.23440    29    28    35    30
 C     0.69370  -4.28140   0.01850    30    27    31    29
 C     1.36340  -4.02330  -1.16630    31    89    30    42
 C     2.85930  -0.56170   3.09270    32    33    11    91
 C     2.46910  -1.85550   2.85830    33    32    37    34
 C     1.12590  -2.22290   3.08400    34    33    35    13
 C     0.63040  -3.33050   2.30370    35    36    29    34
 C    -0.71010  -3.48320   2.22170    36    35    15    24
 C     3.25660  -2.50630   1.91180    37    28    33    93
 C    -3.89720   0.08240  -2.40070    38    49    39    46
 C    -4.61260  -0.54540  -1.38800    39    40    38    47
 C    -4.27770  -1.86990  -1.22140    40    20    39    41
 C    -3.24960  -2.48700  -1.94190    41    25    45    40
 C     0.70840  -3.45910  -2.25720    42    43    56    31
 C    -0.63520  -3.30190  -2.33940    43    42    26    44
 C    -1.12480  -2.18320  -3.11070    44    45    43    58
 C    -2.46860  -1.81680  -2.87570    45    46    41    44
 C    -2.84710  -0.51730  -3.09130    46    45    60    38
 C    -4.93970   0.24420  -0.24250    47    51    48    39
 C    -4.80440  -0.35320   1.00680    48    22    47    68
 C    -3.61900   1.40650  -2.38780    49    50    38    52
 C    -4.00810   2.16380  -1.35360    50    49    53    51
 C    -4.60420   1.57950  -0.26230    51    50    47    66
 C    -2.42890   1.65000  -3.03010    52    49    60    55
 C    -3.22330   3.20400  -0.99470    53    50    65    54
 C    -2.05370   3.57560  -1.67210    54    72    53    55
 C    -1.60990   2.72390  -2.74670    55    52    63    54
 C     1.60430  -2.60420  -2.86530    56    81    42    57
 C     1.22440  -1.39780  -3.47070    57    56    58    84
 C    -0.16740  -1.17460  -3.60210    58    57    59    44
 C    -0.58690   0.19660  -3.72280    59    60    58    62
 C    -1.93450   0.44550  -3.47790    60    52    46    59
 C     1.73810   1.02940  -3.38650    61    84    85    62
 C     0.32500   1.30890  -3.56460    62    59    61    63
 C    -0.23500   2.56090  -3.06340    63    64    55    62
 C     0.62320   3.39550  -2.36960    64    86    63    71
 C    -3.33930   3.27560   0.37190    65    69    66    53
 C    -4.10000   2.25400   0.83960    66    65    51    67
 C    -3.76010   1.59160   2.02810    67    68    66     2
 C    -4.16080   0.29830   2.07250    68    67     4    48
 C    -2.32120   3.73350   1.07810    69    65    70     1
 C    -1.24970   4.28500   0.48190    70    69    73    72
 C     0.20500   4.19070  -1.30680    71    72    74    64
 C    -1.08610   4.23640  -0.90880    72    71    54    70
 C    -0.18870   4.16910   1.35180    73    75    70     7
 C     1.26520   4.28740  -0.43440    74    76    71    75
 C     1.10380   4.21990   0.95240    75    73    17    74
 C     2.33260   3.72930  -1.03930    76    80    74    86
 C     4.16060   0.30210  -2.04600    77    78    83    97
 C     3.75950   1.59950  -1.98950    78    77    79    85
 C     4.10450   2.24050  -0.79030    79    80    94    78
 C     3.34480   3.25890  -0.32520    80    76    79    16
 C     2.80050  -2.79170  -2.24720    81    82    89    56
 C     3.71400  -1.82140  -2.20510    82    81    83    90
 C     3.41450  -0.61170  -2.76390    83    82    77    84
 C     2.18090  -0.32610  -3.39480    84    83    61    57
 C     2.57900   1.98880  -2.69600    85    86    78    61
 C     1.94630   3.11830  -2.20890    86    64    76    85
 C     4.31360  -2.45950  -0.02700    87    88    93    90
 C     3.36500  -3.42960  -0.08350    88    89    87    28
 C     2.64950  -3.63760  -1.19960    89    88    31    81
 C     4.52940  -1.66610  -1.11990    90    97    82    87
 C     3.91300   0.05120   2.41830    91    96    92    32
 C     4.62870  -0.56690   1.39850    92    93    91    98
 C     4.29680  -1.88780   1.21060    93    87    92    37
 C     4.61660   1.56800   0.30820    94    95    98    79
 C     4.02410   2.15030   1.40440    95    96    16    94
 C     3.63800   1.37720   2.42440    96    95    91    19
 C     4.81700  -0.35460  -0.99000    97    90    98    77
 C     4.95490   0.23490   0.26090    98    94    97    92
