    98
C98-C1-224                                                                      
 C    -3.33850   1.92680  -2.24220     1     2    61     8
 C    -4.03610   1.63530  -1.10840     2     1     3    59
 C    -4.40540   0.28940  -1.03130     3     4     6     2
 C    -4.57020  -0.34310   0.14960     4     5     3    12
 C    -4.38650   0.32260   1.29050     5     4    11    60
 C    -3.98090  -0.68570  -1.93450     6     7    22     3
 C    -3.21160  -0.39250  -3.02250     7     6     8    19
 C    -2.96600   0.96770  -3.17940     8    66     7     1
 C    -2.17400   0.30200   3.81410     9    10    26    17
 C    -3.22050   0.63180   3.06350    10     9    11    44
 C    -3.87020  -0.33010   2.37070    11    10     5    15
 C    -4.22640  -1.65640   0.04690    12     4    22    14
 C    -2.82270  -3.33200   0.75320    13    14    40    23
 C    -3.68320  -2.33990   1.12850    14    13    12    15
 C    -3.45320  -1.67290   2.35340    15    11    14    16
 C    -2.29920  -2.00970   3.13950    16    17    41    15
 C    -1.69890  -0.98290   3.85930    17     9    34    16
 C    -1.12530  -0.78280  -4.07740    18    93    65    19
 C    -2.23730  -1.34710  -3.44950    19    18     7    20
 C    -2.03800  -2.58810  -2.74520    20    21    19    96
 C    -2.91140  -2.82810  -1.63880    21    23    22    20
 C    -3.85140  -1.87860  -1.27180    22     6    21    12
 C    -2.46170  -3.59000  -0.58060    23    98    21    13
 C     0.06680   2.92990   3.20480    24    25    45    30
 C    -1.18220   2.43240   3.39930    25    24    26    43
 C    -1.16690   1.17580   3.99750    26     9    27    25
 C    -0.02070   0.43150   4.23060    27    29    34    26
 C     2.26460   0.01420   3.59310    28    29    32    37
 C     1.23360   0.91580   3.96990    29    27    30    28
 C     1.23630   2.22580   3.50710    30    54    29    24
 C     4.01250  -0.29580   1.94260    31    38    80    32
 C     3.32860   0.57400   2.78980    32    31    53    28
 C     0.57280  -1.85520   3.73160    33    34    39    37
 C    -0.34400  -0.90240   4.12470    34    27    33    17
 C     2.14290  -3.30840   1.98100    35    42    36    84
 C     2.71510  -2.20390   2.59700    36    38    35    37
 C     1.93570  -1.40950   3.48110    37    36    33    28
 C     3.72770  -1.62540   1.84690    38    31    36    87
 C    -0.00770  -2.98290   3.06470    39    42    33    41
 C    -1.77440  -3.70290   1.55990    40    88    13    41
 C    -1.42110  -3.04020   2.74730    41    40    16    39
 C     0.84210  -3.66670   2.20730    42    35    92    39
 C    -2.22900   2.78470   2.49670    43    44    25    47
 C    -3.24680   1.84530   2.39530    44    60    10    43
 C     0.32460   3.79250   2.18480    45    24    49    46
 C    -0.64180   4.12760   1.23420    46    48    45    47
 C    -1.96650   3.60150   1.34070    47    46    43    58
 C    -0.09270   4.37770  -0.01470    48    56    52    46
 C     1.67440   3.68570   1.90230    49    51    45    54
 C     3.23170   3.18170   0.24590    50    51    55    67
 C     2.16040   3.92350   0.64840    51    52    50    49
 C     1.25640   4.26320  -0.30620    52    51    69    48
 C     3.29080   1.92960   2.34080    53    54    55    32
 C     2.22530   2.70750   2.71560    54    30    53    49
 C     3.80930   2.24860   1.07870    55    81    50    53
 C    -0.78240   4.12310  -1.15780    56    48    57    62
 C    -2.08180   3.65250  -1.12680    57    56    61    58
 C    -2.73220   3.37000   0.11650    58    57    59    47
 C    -3.75610   2.35780   0.08970    59    60     2    58
 C    -3.98400   1.64940   1.26270    60    44     5    59
 C    -2.39120   2.91970  -2.26240    61     1    57    64
 C     0.15300   3.80510  -2.15250    62    69    63    56
 C    -0.12350   2.97410  -3.19560    63    62    64    71
 C    -1.45790   2.60010  -3.24280    64    66    63    61
 C    -0.93160   0.56930  -4.22480    65    66    72    18
 C    -1.84530   1.41950  -3.77460    66    65     8    64
 C     3.37320   2.74700  -1.07190    67    73    68    50
 C     2.44040   3.02740  -2.04960    68    67    69    70
 C     1.40200   3.85440  -1.61910    69    62    52    68
 C     2.19620   2.05720  -3.06860    70    68    71    75
 C     0.88840   2.08100  -3.66550    71    72    63    70
 C     0.39890   0.88340  -4.18380    72    78    65    71
 C     4.07920   1.57850  -1.04210    73    67    81    74
 C     3.91380   0.56530  -1.98600    74    73    83    75
 C     2.94510   0.79890  -3.03000    75    77    74    70
 C     2.61180  -1.62550  -3.07590    76    82    77    94
 C     2.32260  -0.36840  -3.57550    77    78    76    75
 C     1.06420  -0.29660  -4.11330    78    72    77    93
 C     4.48030  -0.94810  -0.14960    79    80    87    83
 C     4.52690   0.08720   0.71900    80    81    79    31
 C     4.38090   1.32500   0.27930    81    80    55    73
 C     3.51810  -1.81600  -2.07460    82    76    83    85
 C     4.18460  -0.75290  -1.51120    83    82    79    74
 C     2.48960  -3.73360   0.69470    84    86    91    35
 C     3.15600  -2.95500  -1.38290    85    86    89    82
 C     3.42680  -3.08000  -0.03950    86    87    84    85
 C     4.06940  -2.05010   0.56090    87    86    79    38
 C    -0.86270  -4.27680   0.73000    88    92    40    98
 C     2.00700  -3.46470  -1.95170    89    94    90    85
 C     1.05240  -4.15110  -1.23870    90    89    91    97
 C     1.36850  -4.28640   0.11890    91    92    84    90
 C     0.41560  -4.29940   1.06900    92    88    91    42
 C     0.11830  -1.33460  -4.04300    93    18    95    78
 C     1.66530  -2.66170  -3.00030    94    89    95    76
 C     0.35290  -2.53260  -3.41850    95    93    94    96
 C    -0.71000  -3.20250  -2.73480    96    95    97    20
 C    -0.31460  -4.03300  -1.62620    97    98    90    96
 C    -1.23570  -4.17050  -0.59000    98    23    88    97
