    98
C98-C1-79                                                                       
 C    -3.66630   1.93600   1.84640     1     2     8    64
 C    -4.16130   0.66830   1.85130     2     1     3     7
 C    -4.79660   0.29320   0.65180     3     4    63     2
 C    -4.83670  -0.99750   0.25920     4     5     3    12
 C    -4.29800  -1.93970   1.04810     5     4    13     6
 C    -3.61710  -1.60650   2.19810     6    23     5     7
 C    -3.46440  -0.29610   2.65050     7     6     2    19
 C    -2.58120   2.28290   2.60840     8    69     1     9
 C    -1.79710   1.38470   3.36770     9     8    19    18
 C    -3.96490  -2.06640  -1.63700    10    12    11    27
 C    -3.51130  -3.07910  -0.85460    11    13    10    36
 C    -4.67520  -1.05360  -1.09910    12    43    10     4
 C    -3.68510  -3.01650   0.48960    13    14    11     5
 C    -2.69890  -3.43370   1.29660    14    13    15    23
 C    -1.57310  -4.05980   0.79970    15    16    14    35
 C    -0.50440  -3.96230   1.62410    16    37    15    24
 C     0.01180   2.94030   2.98280    17    79    68    18
 C    -0.41800   1.73310   3.56090    18    17    94     9
 C    -2.23890   0.03150   3.37590    19     9    21     7
 C     0.17250  -0.62140   3.82110    20    97    94    21
 C    -1.22900  -0.98300   3.60940    21    22    19    20
 C    -1.50930  -2.29220   3.08650    22    23    24    21
 C    -2.65780  -2.55450   2.38970    23     6    22    14
 C    -0.46950  -3.12130   2.74010    24    98    22    16
 C     0.77740  -0.99190  -3.72720    25    26    34    47
 C    -0.54140  -1.35890  -3.62060    26    25    31    41
 C    -3.04850  -1.83140  -2.62750    27    10    29    28
 C    -2.81860  -0.55660  -3.15150    28    27    42    41
 C    -2.05440  -2.78550  -2.48770    29    31    36    27
 C     0.28150  -3.37600  -2.34230    30    33    31    39
 C    -0.78120  -2.62030  -2.96730    31    29    26    30
 C     2.62590  -3.21150  -1.66640    32    40    33    57
 C     1.60710  -2.93700  -2.57000    33    34    32    30
 C     1.82030  -1.76810  -3.28340    34    25    59    33
 C    -1.32830  -4.12060  -0.60900    35    36    39    15
 C    -2.33630  -3.55230  -1.36970    36    11    29    35
 C     0.76240  -4.12090   1.18300    37    16    89    38
 C     1.07120  -4.23490  -0.17530    38    40    37    39
 C     0.00210  -4.10700  -1.10830    39    35    38    30
 C     2.34790  -3.81560  -0.47270    40    32    38    92
 C    -1.50900  -0.29050  -3.65480    41    28    26    44
 C    -3.63310   0.47710  -2.60370    42    46    43    28
 C    -4.53620   0.20260  -1.56700    43    12    63    42
 C    -1.01390   1.07460  -3.63710    44    45    48    41
 C    -1.83920   2.02740  -3.06340    45    46    44    52
 C    -3.08620   1.73680  -2.56230    46    42    45    61
 C     1.22240   0.32230  -3.76640    47    54    48    25
 C     0.36920   1.40300  -3.64220    48    47    44    50
 C     2.29350   2.55850  -2.59180    49    53    56    50
 C     0.91640   2.58990  -3.01010    50    51    49    48
 C    -0.00230   3.45710  -2.32010    51    52    71    50
 C    -1.35010   3.15120  -2.41280    52    65    51    45
 C     2.61910   3.32160  -1.46800    53    70    82    49
 C     2.53660   0.32910  -3.38670    54    47    56    59
 C     4.15340   1.10090  -1.91170    55    81    60    56
 C     3.12020   1.42640  -2.80200    56    54    55    49
 C     3.74130  -2.39980  -1.49050    57    58    85    32
 C     3.93070  -1.25440  -2.21900    58    57    60    59
 C     2.92780  -0.96460  -3.11020    59    58    34    54
 C     4.53640  -0.18690  -1.60690    60    58    55    88
 C    -3.35700   2.65020  -1.55920    61    65    62    46
 C    -4.14520   2.30000  -0.47760    62    63    64    61
 C    -4.71930   1.07430  -0.50130    63    62    43     3
 C    -3.69700   2.77210   0.72470    64    67    62     1
 C    -2.28950   3.51040  -1.46330    65    61    66    52
 C    -1.91980   4.10200  -0.27530    66    65    72    67
 C    -2.65940   3.64410   0.82000    67    64    69    66
 C    -0.79680   3.71460   2.18550    68    69    73    17
 C    -2.05150   3.39110   2.00970    69    68    67     8
 C     1.70120   4.04880  -0.77260    70    53    75    71
 C     0.37620   4.19040  -1.15120    71    70    51    72
 C    -0.57530   4.44000  -0.11100    72    66    73    71
 C    -0.07420   4.31260   1.19800    73    76    68    72
 C     3.20860   3.24550   0.68600    74    75    82    77
 C     2.10730   4.00970   0.54690    75    76    74    70
 C     1.20280   4.05260   1.50250    76    75    73    79
 C     3.41380   2.39290   1.79550    77    84    74    78
 C     2.33750   2.31810   2.75200    78    79    93    77
 C     1.29560   3.19760   2.57990    79    17    78    76
 C     4.71400   1.02930   0.24760    80    81    88    84
 C     4.34190   1.84580  -0.78860    81    82    55    80
 C     3.60530   2.92210  -0.57880    82    81    74    53
 C     3.94410   0.13570   2.26530    83    84    86    95
 C     4.21420   1.26990   1.54210    84    83    77    80
 C     4.11400  -2.46430  -0.15870    85    92    57    87
 C     4.19060  -1.13550   1.77020    86    90    83    87
 C     4.66180  -1.36000   0.48130    87    88    85    86
 C     4.89720  -0.23700  -0.26670    88    87    80    60
 C     1.61030  -3.51590   2.08620    89    91    37    98
 C     3.29680  -1.97960   2.37850    90    91    86    96
 C     2.85620  -3.11790   1.75350    91    89    92    90
 C     3.25300  -3.32760   0.46020    92    85    91    40
 C     1.98370   1.09810   3.40640    93    95    78    94
 C     0.60250   0.76370   3.77620    94    18    20    93
 C     2.86220   0.05810   3.14270    95    96    93    83
 C     2.47170  -1.24380   3.22190    96    95    97    90
 C     1.17610  -1.60750   3.53920    97    98    96    20
 C     0.81470  -2.81920   2.98470    98    24    97    89
