    98
C98-C1-121                                                                      
 C    -3.98130   2.35180   0.57010     1     2    63     4
 C    -4.67350   1.12860   0.61470     2     3    42     1
 C    -4.93910   0.36240  -0.47410     3     6     2    18
 C    -3.49820   2.77710  -0.72600     4     5     9     1
 C    -3.74040   1.91480  -1.79600     5     6     4    25
 C    -4.46050   0.76180  -1.67800     6     3    19     5
 C    -0.44460   4.29840   0.48250     7    10     8    75
 C    -1.75720   3.98120   0.36400     8     7    62     9
 C    -2.34390   3.57560  -0.84230     9     8     4    12
 C     0.34640   4.28290  -0.57640    10     7    13    11
 C    -0.12330   3.83230  -1.77510    11    10    26    12
 C    -1.43730   3.43900  -1.96070    12    11    24     9
 C     1.66580   4.04940  -0.43920    13    10    97    15
 C     3.37660   2.99110   0.68710    14    15    76    95
 C     2.24000   3.73680   0.79690    15    14    13    74
 C    -4.40190  -1.85060  -1.01740    16    18    33    17
 C    -3.93810  -1.45120  -2.23280    17    19    21    16
 C    -4.89260  -0.96260  -0.12460    18    16    41     3
 C    -3.95950  -0.14380  -2.55460    19    17     6    20
 C    -2.92700   0.40350  -3.24390    20    19    25    23
 C    -2.87810  -2.21970  -2.59490    21    17    34    22
 C    -1.81750  -1.74400  -3.36070    22    21    36    23
 C    -1.84470  -0.33370  -3.71260    23    20    29    22
 C    -1.62160   2.42070  -2.93110    24    25    12    28
 C    -2.80130   1.71920  -2.81870    25    24    20     5
 C     0.96520   3.31310  -2.42630    26    11    27    97
 C     0.84570   2.26330  -3.32690    27    26    91    28
 C    -0.49340   1.77830  -3.57460    28    27    29    24
 C    -0.65190   0.38300  -3.93010    29    30    23    28
 C     0.49270  -0.38210  -3.96850    30    92    29    35
 C    -2.10230  -3.64430   0.97480    31    32    46    39
 C    -3.29630  -3.02570   0.75210    32    31    33    40
 C    -3.61570  -2.87200  -0.59530    33    16    32    34
 C    -2.69730  -3.16210  -1.60800    34    38    21    33
 C     0.52630  -1.73560  -3.61450    35    56    36    30
 C    -0.58500  -2.43180  -3.20910    36    35    22    37
 C    -0.35940  -3.46110  -2.21410    37    38    36    58
 C    -1.47850  -3.74250  -1.38110    38    34    39    37
 C    -1.25090  -4.05480  -0.05380    39    60    38    31
 C    -3.72440  -2.07230   1.70870    40    41    32    43
 C    -4.55710  -1.05550   1.19800    41    42    18    40
 C    -4.49550   0.23100   1.65710    42    45    41     2
 C    -2.83520  -1.74760   2.79440    43    44    47    40
 C    -2.86060  -0.42450   3.22630    44    45    51    43
 C    -3.66640   0.52720   2.65470    45    42    64    44
 C    -1.31490  -3.40380   2.07850    46    53    31    47
 C    -1.59700  -2.40190   3.00750    47    46    43    49
 C     0.85080  -2.28580   3.35890    48    52    55    49
 C    -0.44960  -1.76340   3.62090    49    48    50    47
 C    -0.53550  -0.35920   3.95910    50    51    67    49
 C    -1.76040   0.23150   3.73860    51    50    44    65
 C     1.94830  -1.44270   3.49400    52    82    66    48
 C    -0.04890  -3.80460   1.77010    53    55    46    60
 C     2.22610  -3.43420   1.70290    54    81    55    61
 C     1.04540  -3.33720   2.42190    55    53    54    48
 C     1.79880  -2.02850  -3.21000    56    85    35    57
 C     2.10470  -2.99650  -2.25380    57    56    58    88
 C     0.98240  -3.69250  -1.70510    58    59    57    37
 C     1.12780  -4.09890  -0.34310    59    60    61    58
 C    -0.00420  -4.19350   0.43420    60    39    59    53
 C     2.27280  -3.78360   0.35780    61    89    59    54
 C    -2.14470   3.49350   1.58560    62    63     8    70
 C    -3.21890   2.67370   1.71480    63    62    64     1
 C    -3.06060   1.73230   2.72550    64    45    65    63
 C    -1.88700   1.57410   3.44120    65    69    51    64
 C     1.82310  -0.09160   3.73730    66    67    52    71
 C     0.60680   0.51830   3.93880    67    66    50    68
 C     0.50790   1.91250   3.55430    68    69    67    73
 C    -0.79650   2.39840   3.30130    69    65    70    68
 C    -0.99080   3.40400   2.37540    70    75    69    62
 C     2.92550   0.53280   3.18820    71    72    66    77
 C     2.85560   1.83360   2.73290    72    71    76    73
 C     1.64340   2.55420   2.89150    73    72    74    68
 C     1.37870   3.58060   1.91740    74    75    15    73
 C     0.05860   3.93590   1.70900    75    70     7    74
 C     3.71420   2.07920   1.65940    76    14    79    72
 C     3.75090  -0.42860   2.62140    77    82    71    78
 C     4.55290  -0.19560   1.51180    78    79    77    84
 C     4.51910   1.11210   1.06890    79    94    78    76
 C     3.99520  -2.41920   0.79610    80    81    84    89
 C     3.27430  -2.61030   1.93690    81    82    54    80
 C     3.13620  -1.62360   2.83190    82    81    77    52
 C     4.72820  -0.87370  -0.78780    83    98    84    87
 C     4.67470  -1.23440   0.54710    84    83    80    78
 C     2.55200  -0.90530  -3.39520    85    86    56    92
 C     3.66050  -0.68480  -2.69970    86    85    93    87
 C     4.05810  -1.59980  -1.76650    87    86    83    88
 C     3.30320  -2.74670  -1.51250    88    89    87    57
 C     3.34780  -3.14880  -0.20090    89    61    88    80
 C     3.20250   1.69090  -2.67460    90    96    93    91
 C     2.00710   1.44970  -3.44370    91    92    27    90
 C     1.74980   0.12920  -3.78530    92    85    30    91
 C     4.00560   0.58100  -2.34750    93    86    98    90
 C     4.61630   1.43180  -0.25930    94    98    95    79
 C     3.89890   2.55430  -0.52660    95    94    14    96
 C     3.20670   2.73310  -1.72950    96    97    95    90
 C     2.09390   3.50760  -1.64020    97    96    13    26
 C     4.70420   0.45010  -1.17400    98    94    93    83
