    98
C98-C1-36                                                                       
 C    -2.82260   0.10580  -3.16350     1     2    57     4
 C    -3.93300  -0.20700  -2.38740     2     3    54     1
 C    -4.60770   0.73710  -1.63890     3     6    18     2
 C    -2.34960   1.48370  -3.16150     4     5     8     1
 C    -3.04440   2.34200  -2.31520     5     6    11     4
 C    -4.12810   1.98570  -1.57660     6     3     5    19
 C    -0.22790   0.77450  -3.85110     7     8    15    58
 C    -0.99330   1.81360  -3.42260     8     7     4     9
 C    -0.27240   2.89940  -2.79220     9    10     8    13
 C    -1.05480   3.60550  -1.84820    10    12    11     9
 C    -2.37540   3.32850  -1.63200    11    10     5    20
 C    -0.41730   4.11530  -0.75450    12    98    10    22
 C     1.19020   2.87020  -2.65310    13    14    97     9
 C     1.92750   1.78890  -3.21480    14    15    13    92
 C     1.13990   0.78000  -3.79440    15    73     7    14
 C    -5.01370   0.79540   0.68500    16    17    26    18
 C    -4.44920   2.02490   0.75130    17    19    16    40
 C    -5.11920   0.13970  -0.53090    18    25     3    16
 C    -4.07340   2.65250  -0.38570    19    20    17     6
 C    -3.00040   3.44960  -0.38590    20    19    21    11
 C    -2.25390   3.67150   0.76020    21    22    20    39
 C    -1.00170   4.08040   0.51760    22    21    42    12
 C    -4.54580  -1.85650   0.49830    23    25    44    24
 C    -4.40390  -1.19560   1.70750    24    26    32    23
 C    -4.82460  -1.17800  -0.62610    25    23    18    54
 C    -4.57840   0.12280   1.77930    26    24    16    27
 C    -3.66930   0.88530   2.49500    27    40    26    30
 C    -0.03700  -0.93840   3.70410    28    47    46    29
 C    -0.13930   0.52580   3.74040    29    37    34    28
 C    -2.57760   0.35030   3.21770    30    27    31    34
 C    -2.47450  -1.07190   3.21140    31    47    32    30
 C    -3.41800  -1.77570   2.41490    32    24    45    31
 C    -1.39240   2.49510   2.78610    33    41    39    34
 C    -1.40990   1.16720   3.41510    34    30    29    33
 C     2.26700   2.97860   2.37520    35    84    89    36
 C     1.07430   2.56820   3.02350    36    41    35    37
 C     1.07650   1.26470   3.60460    37    38    36    29
 C     2.29450   0.56730   3.49530    38    85    49    37
 C    -2.49740   2.89670   1.93780    39    40    21    33
 C    -3.61900   2.10270   1.86480    40    27    39    17
 C    -0.13520   3.11660   2.56070    41    36    42    33
 C    -0.01080   3.92390   1.40890    42    22    87    41
 C    -1.92510  -3.42930   1.87800    43    45    50    48
 C    -3.66150  -2.87290   0.45570    44    23    45    52
 C    -3.08260  -2.88370   1.69830    45    43    32    44
 C     1.25420  -1.57580   3.42130    46    49    65    28
 C    -1.21260  -1.67820   3.40660    47    48    31    28
 C    -1.01390  -2.91050   2.76680    48    66    43    47
 C     2.37430  -0.79740   3.35280    49    46    38    78
 C    -1.29790  -4.05020   0.85450    50    59    43    51
 C    -1.72420  -3.93420  -0.49000    51    52    50    62
 C    -2.94400  -3.27440  -0.70290    52    51    44    53
 C    -3.10710  -2.45270  -1.86110    53    54    52    56
 C    -4.07160  -1.43510  -1.76160    54     2    25    53
 C    -0.78870  -3.04150  -2.58560    55    62    63    56
 C    -2.00620  -2.26030  -2.75770    56    53    55    57
 C    -1.91270  -0.95450  -3.40650    57    58     1    56
 C    -0.67000  -0.55640  -3.83410    58    64    57     7
 C    -0.01640  -4.10890   1.24930    59    60    50    66
 C     0.93890  -4.22010   0.36530    60    59    67    61
 C     0.63670  -4.13090  -0.96790    61    69    60    62
 C    -0.67160  -3.89150  -1.43560    62    61    51    55
 C     0.45090  -2.58840  -3.16240    63    64    70    55
 C     0.43210  -1.34220  -3.77550    64    58    73    63
 C     1.38410  -2.80450   2.70180    65    66    46    68
 C     0.19430  -3.39890   2.40350    66    48    65    59
 C     2.18660  -3.76680   0.64930    67    60    74    68
 C     2.50410  -3.06140   1.82280    68    79    67    65
 C     1.78850  -3.70030  -1.53730    69    61    70    74
 C     1.74030  -2.94770  -2.66830    70    69    71    63
 C     2.82670  -2.09610  -2.80470    71    72    76    70
 C     2.70550  -0.87990  -3.39400    72    73    91    71
 C     1.52390  -0.52310  -3.84800    73    72    15    64
 C     2.78130  -3.51660  -0.55700    74    67    75    69
 C     3.82670  -2.63900  -0.66580    75    74    76    82
 C     3.84420  -1.95660  -1.88010    76    90    71    75
 C     4.16170   0.07060   2.36510    77    85    80    78
 C     3.52170  -1.10450   2.60680    78    77    79    49
 C     3.59430  -2.18670   1.73150    79    78    68    82
 C     4.84100   0.26480   1.20470    80    81    77    86
 C     4.89160  -0.71890   0.27830    81    80    93    82
 C     4.31100  -1.98390   0.49060    82    81    75    79
 C     4.04890   2.46760   1.14270    83    86    88    84
 C     3.40820   2.26870   2.34180    84    85    35    83
 C     3.43240   1.07220   2.91930    85    84    77    38
 C     4.74710   1.48190   0.56730    86    83    94    80
 C     1.14800   4.08920   0.71870    87    89    42    98
 C     3.28880   3.28750   0.36890    88    83    89    96
 C     2.27670   3.67590   1.19750    89    87    88    35
 C     4.32370  -0.67590  -1.98530    90    93    76    91
 C     3.56070   0.03600  -2.87560    91    72    90    92
 C     3.22370   1.40200  -2.72460    92    91    95    14
 C     4.86120  -0.06280  -0.94310    93    90    94    81
 C     4.67320   1.29260  -0.78340    94    86    93    95
 C     3.82040   2.07140  -1.62570    95    96    92    94
 C     3.09420   3.13360  -1.03140    96    95    88    97
 C     1.81930   3.53270  -1.54400    97    98    96    13
 C     0.92390   4.09200  -0.62960    98    12    87    97
