    98
C98-Cs-110                                                                      
 C    -3.17430  -3.02440   1.12340     1     2     6    64
 C    -3.15440  -2.27000   2.26360     2     1     3    10
 C    -3.93000  -1.11060   2.16480     3     4    61     2
 C    -3.57830   0.00930   2.84740     4     5    14     3
 C    -2.50040   0.00790   3.62300     5     4    11    15
 C    -2.08890  -3.78670   0.76670     6     1     8    66
 C     0.19410  -4.12440   0.80840     7    27     8    65
 C    -0.93820  -3.84100   1.53730     8     7     6     9
 C    -0.81370  -3.07530   2.72390     9     8    10    29
 C    -1.97330  -2.28960   3.07010    10    11     2     9
 C    -1.72400  -1.10970   3.75980    11    31     5    10
 C    -3.17880   3.02900   1.10320    12    13    19    34
 C    -3.15710   2.28430   2.24940    13    12    14    16
 C    -3.93190   1.12440   2.15830    14     4    33    13
 C    -1.73070   1.13610   3.74600    15    21     5    16
 C    -1.97390   2.31550   3.05160    16    15    13    17
 C    -0.81670   3.09440   2.69380    17    18    16    24
 C    -0.93560   3.84940   1.50080    18    20    19    17
 C    -2.09110   3.78310   0.73930    19    12    18    38
 C     0.19620   4.12390   0.77260    20    26    18    40
 C    -0.48540   0.70950   4.07850    21    15    23    31
 C     1.78400   0.71780   3.74570    22    90    23    32
 C     0.63040   1.46070   3.81970    23    21    22    24
 C     0.52420   2.68160   3.09870    24    23    25    17
 C     1.69750   3.06540   2.33870    25    26    91    24
 C     1.45600   3.78340   1.17620    26    20    86    25
 C     1.45150  -3.77880   1.21730    27     7    80    28
 C     1.70070  -3.04830   2.37200    28    27    96    29
 C     0.52530  -2.65680   3.12760    29    30    28     9
 C     0.63830  -1.43100   3.84120    30    31    32    29
 C    -0.48160  -0.69080   4.09360    31    11    30    21
 C     1.78820  -0.68940   3.75770    32    97    30    22
 C    -4.58240   0.69470   1.00500    33    35    61    14
 C    -3.84990   2.62250  -0.05020    34    36    12    35
 C    -4.53920   1.41240  -0.17160    35    33    34    42
 C    -3.14060   3.15350  -1.08730    36    37    38    34
 C    -3.05830   2.49920  -2.24700    37    36    41    55
 C    -2.07340   3.85820  -0.64520    38    36    39    19
 C    -0.90390   3.96040  -1.37630    39    40    38    54
 C     0.20410   4.17300  -0.61830    40    56    39    20
 C    -3.71570   1.32120  -2.40500    41    37    44    42
 C    -4.48210   0.69740  -1.39920    42    41    35    43
 C    -4.47480  -0.72770  -1.39690    43    46    60    42
 C    -2.92880   0.63930  -3.29040    44    45    41    47
 C    -2.92750  -0.67770  -3.28700    45    44    46    53
 C    -3.70710  -1.36120  -2.39560    46    62    45    43
 C    -1.77970   1.32010  -3.60420    47    55    44    51
 C     1.84010   0.70620  -3.63030    48    49    50    74
 C     2.93420   1.32990  -2.99620    49    83    59    48
 C     0.61990   1.44370  -3.69280    50    51    48    58
 C    -0.56760   0.69720  -3.93630    51    47    50    52
 C    -0.56530  -0.74540  -3.93450    52    53    75    51
 C    -1.78010  -1.36190  -3.59850    53    68    45    52
 C    -0.75120   3.23080  -2.58970    54    55    39    58
 C    -1.87120   2.52150  -2.96130    55    47    54    37
 C     1.44190   3.85560  -1.04540    56    40    86    57
 C     1.64660   3.17980  -2.24860    57    59    56    58
 C     0.52570   2.74370  -3.00140    58    57    54    50
 C     2.82200   2.50290  -2.28250    59    57    49    88
 C    -4.53360  -1.42050  -0.15510    60    61    64    43
 C    -4.58200  -0.69030   1.01050    61    60    33     3
 C    -3.05990  -2.54380  -2.23180    62    63    46    68
 C    -3.13880  -3.18370  -1.06490    63    62    66    64
 C    -3.84010  -2.63030  -0.03780    64    63     1    60
 C     0.19700  -4.19240  -0.58270    65    73    67     7
 C    -2.07390  -3.88260  -0.61830    66    63    67     6
 C    -0.90490  -3.98870  -1.34940    67    65    66    70
 C    -1.87410  -2.56070  -2.94850    68    53    70    62
 C     0.52140  -2.77240  -2.98540    69    72    70    75
 C    -0.75220  -3.26540  -2.56890    70    68    67    69
 C     2.81220  -2.51530  -2.25750    71    72    76    78
 C     1.63600  -3.19950  -2.21520    72    71    73    69
 C     1.43450  -3.86750  -1.00820    73    65    80    72
 C     1.83920  -0.74590  -3.62890    74    76    75    48
 C     0.62490  -1.48300  -3.68870    75    52    74    69
 C     2.93670  -1.34970  -2.98740    76    84    71    74
 C     4.45770  -1.34820  -1.35890    77    78    81    84
 C     3.72480  -2.47260  -1.19780    78    77    79    71
 C     3.41440  -2.99220   0.05980    79    80    78    95
 C     2.25830  -3.70250   0.09760    80    79    27    73
 C     4.91090  -0.68970  -0.26450    81    77    98    85
 C     4.46000   1.33760  -1.37020    82    88    85    83
 C     3.98730   0.65500  -2.45100    83    84    82    49
 C     3.98790  -0.67560  -2.44610    84    83    76    77
 C     4.91220   0.68540  -0.26950    85    82    93    81
 C     2.26750   3.70280   0.06220    86    87    26    56
 C     3.42790   2.99390   0.03550    87    86    88    94
 C     3.73300   2.46840  -1.22170    88    82    87    59
 C     3.60060   0.00860   2.75510    89    92    97    90
 C     2.89010   1.13840   3.07690    90    22    89    91
 C     2.91890   2.31410   2.32550    91    90    25    94
 C     4.44360   0.00320   1.73130    92    89    98    93
 C     4.58820   1.14350   0.97750    93    85    92    94
 C     3.81620   2.29700   1.20230    94    93    87    91
 C     3.80680  -2.28980   1.22390    95    98    79    96
 C     2.91770  -2.29310   2.35370    96    97    28    95
 C     2.89350  -1.11340   3.09440    97    32    89    96
 C     4.58510  -1.13900   0.98420    98    81    92    95
