    98
C98-C1-92                                                                       
 C     0.20990   3.27890   2.61510     1    17     2    66
 C     1.44840   2.71460   2.78910     2     1    64     8
 C     2.69120   0.65560   3.14510     3    10     4     8
 C     3.70010   1.22180   2.31090     4     5    65     3
 C     4.57930   0.49110   1.55160     5     6    23     4
 C     4.51810  -0.83800   1.58110     6     5    11    24
 C     0.24290   0.71670   3.74960     7    20    15     8
 C     1.50170   1.40350   3.40390     8     3     2     7
 C     1.42150  -1.42170   3.45670     9    12    10    15
 C     2.65390  -0.76040   3.18480    10     3    11     9
 C     3.60930  -1.44350   2.37850    11     6    14    10
 C     1.30930  -2.69640   2.88690    12    98    13     9
 C     2.22840  -3.22630   2.00650    13    14    29    12
 C     3.34360  -2.62050   1.74710    14    13    11    25
 C     0.18910  -0.73580   3.74850    15     9     7    16
 C    -1.09500  -1.42630   3.51760    16    96    97    15
 C    -0.94420   2.69880   3.03000    17     1    75    20
 C    -3.27370   1.42840   2.68250    18    74    93    19
 C    -2.25490   0.73820   3.40650    19    96    20    18
 C    -1.00770   1.40990   3.58170    20    17    19     7
 C     4.93600   0.43520  -0.76790    21    23    27    22
 C     4.85130  -0.93730  -0.73930    22    24    33    21
 C     4.82620   1.15090   0.37850    23    40    21     5
 C     4.68110  -1.57860   0.42690    24    22    25     6
 C     3.89730  -2.67740   0.48950    25    24    14    31
 C     2.76930  -0.18760  -3.27240    26    28    34    36
 C     4.28620   0.88670  -1.88530    27    28    21    38
 C     3.85690  -0.24280  -2.52490    28    26    33    27
 C     1.61390  -3.96440   1.05090    29    88    13    30
 C     1.99050  -3.92020  -0.31630    30    31    29    61
 C     3.17230  -3.21760  -0.60570    31    30    32    25
 C     3.25540  -2.49780  -1.82630    32    31    33    35
 C     4.13440  -1.38300  -1.82420    33    28    22    32
 C     1.93430  -1.25890  -3.39370    34    26    57    35
 C     2.09940  -2.45490  -2.67850    35    34    60    32
 C     2.08700   0.98480  -3.44320    36    42    26    37
 C     2.42460   2.16660  -2.79170    37    36    45    38
 C     3.58030   2.10300  -1.94230    38    27    39    37
 C     3.58140   2.85760  -0.75020    39    41    40    38
 C     4.16060   2.32010   0.40320    40    23    65    39
 C     2.51080   3.66650  -0.52530    41    39    63    46
 C     0.81600   0.64050  -3.80420    42    36    43    57
 C    -0.26810   1.47710  -3.64360    43    42    51    44
 C    -0.02960   2.73560  -2.97030    44    45    43    48
 C     1.31990   3.02690  -2.54310    45    46    37    44
 C     1.44100   3.81040  -1.40460    46    68    45    41
 C    -2.38600   2.68430  -2.36310    47    52    48    71
 C    -1.15210   3.31520  -2.26100    48    47    67    44
 C    -2.76530  -1.17810  -3.14030    49    58    80    50
 C    -1.61460  -0.62220  -3.68290    50    49    56    51
 C    -1.51730   0.82340  -3.65660    51    52    43    50
 C    -2.56980   1.50830  -3.06160    52    81    47    51
 C    -1.55350  -3.90770  -1.24720    53    59    54    84
 C    -1.60890  -3.14240  -2.39110    54    53    58    55
 C    -0.38430  -2.71380  -2.97620    55    54    56    60
 C    -0.44750  -1.43380  -3.65090    56    57    50    55
 C     0.72600  -0.75620  -3.79390    57    56    34    42
 C    -2.76630  -2.38790  -2.49950    58    49    54    87
 C    -0.36170  -4.26210  -0.69030    59    53    92    61
 C     0.89920  -3.18310  -2.42830    60    35    61    55
 C     0.89230  -3.97340  -1.23150    61    59    30    60
 C     0.75480   4.30780   0.59310    62    66    63    68
 C     2.01570   3.89450   0.74690    63    62    41    64
 C     2.43350   3.15800   1.85990    64    65    63     2
 C     3.52520   2.41080   1.64490    65    64     4    40
 C    -0.12430   4.09980   1.55260    66    62    69     1
 C    -0.96970   4.07910  -1.07380    67    68    48    70
 C     0.35180   4.26840  -0.71390    68    62    46    67
 C    -1.42960   4.02150   1.27780    69    66    75    70
 C    -1.95600   4.04630  -0.03120    70    72    69    67
 C    -3.38560   2.72810  -1.39000    71    72    76    47
 C    -3.16800   3.36550  -0.19040    72    71    73    70
 C    -3.75020   2.71200   0.90090    73    74    78    72
 C    -3.08570   2.63560   2.09700    74    75    18    73
 C    -1.95540   3.25910   2.27280    75    74    69    17
 C    -4.17170   1.59420  -1.50540    76    81    71    77
 C    -4.77470   0.95360  -0.41750    77    78    76    83
 C    -4.49500   1.56230   0.79440    78    73    93    77
 C    -4.38280  -1.11610  -1.58390    79    80    87    83
 C    -3.78250  -0.43580  -2.60100    80    81    79    49
 C    -3.67780   0.88990  -2.55850    81    80    76    52
 C    -4.64000  -1.15060   0.74280    82    94    85    83
 C    -4.87130  -0.45860  -0.45030    83    82    79    77
 C    -2.51900  -3.80640  -0.23750    84    86    91    53
 C    -4.02800  -2.37640   0.79260    85    82    86    89
 C    -3.62210  -3.02530  -0.35620    86    84    87    85
 C    -3.77440  -2.34950  -1.53190    87    86    79    58
 C     0.35660  -4.08210   1.49820    88    92    29    98
 C    -3.27260  -2.43470   1.96590    89    90    95    85
 C    -2.16720  -3.20900   2.08750    90    89    91    97
 C    -1.86280  -3.97290   0.95320    91    92    84    90
 C    -0.61330  -4.33240   0.65800    92    88    91    59
 C    -4.22580   0.81350   1.92170    93    94    18    78
 C    -4.27590  -0.50620   1.89560    94    93    82    95
 C    -3.36700  -1.24130   2.61990    95    89    94    96
 C    -2.30020  -0.67410   3.36430    96    19    95    16
 C    -1.09630  -2.74240   2.90630    97    98    90    16
 C     0.12750  -3.28450   2.60690    98    12    97    88
