    98
C98-C1-53                                                                       
 C    -3.18930   0.15200   2.92880     1     2    62     4
 C    -4.22810  -0.10650   2.03060     2     3    58     1
 C    -4.76160   0.86600   1.20920     3     6    18     2
 C    -2.65290   1.50420   2.97790     4     5     8     1
 C    -3.21480   2.40150   2.07500     5     6    11     4
 C    -4.22510   2.09540   1.21430     6     3     5    19
 C    -0.62610   0.67940   3.84670     7     8    15    63
 C    -1.30850   1.76410   3.37710     8     7     4     9
 C    -0.48360   2.82890   2.84210     9    10     8    13
 C    -1.13780   3.58990   1.84270    10    12    11     9
 C    -2.43870   3.36840   1.48420    11    10     5    20
 C    -0.37190   4.10380   0.83650    12    98    10    22
 C     0.98470   2.74500   2.83920    13    14    97     9
 C     1.61870   1.60960   3.41900    14    15    13    92
 C     0.74230   0.62330   3.89070    15    69     7    14
 C    -4.87050   0.94890  -1.13930    16    17    26    18
 C    -4.27300   2.16310  -1.13060    17    19    16    40
 C    -5.15850   0.28890   0.03760    18    25     3    16
 C    -4.01090   2.77320   0.04650    19    20    17     6
 C    -2.91970   3.53300   0.17950    20    19    21    11
 C    -2.04550   3.74910  -0.87140    21    22    20    39
 C    -0.81720   4.11910  -0.49080    22    21    42    12
 C    -4.51370  -1.72380  -0.92970    23    45    25    24
 C    -4.14910  -1.06110  -2.08190    24    26    32    23
 C    -4.93610  -1.03870   0.15440    25    23    18    58
 C    -4.28800   0.26220  -2.16370    26    24    16    27
 C    -3.29290   1.00060  -2.76460    27    40    26    30
 C     0.39120  -0.84380  -3.69550    28    54    51    29
 C     0.30840   0.62340  -3.70170    29    37    34    28
 C    -2.14260   0.44560  -3.36670    30    27    34    31
 C    -2.05150  -0.98920  -3.34260    31    32    51    30
 C    -3.08600  -1.67420  -2.65870    32    24    46    31
 C    -0.99670   2.58550  -2.81440    33    41    39    34
 C    -0.96610   1.26510  -3.45780    34    30    29    33
 C     2.61060   3.00070  -2.04190    35    84    89    36
 C     1.48040   2.63330  -2.82230    36    41    35    37
 C     1.52640   1.35510  -3.45500    37    38    36    29
 C     2.73690   0.65720  -3.28250    38    53    85    37
 C    -2.17280   2.99260  -2.07800    39    40    21    33
 C    -3.30720   2.21920  -2.13390    40    27    39    17
 C     0.24060   3.18500  -2.45760    41    36    42    33
 C     0.25700   3.96000  -1.27790    42    22    87    41
 C    -2.03670  -3.86600   0.39490    43    44    59    48
 C    -3.20770  -3.18000   0.44510    44    43    45    57
 C    -3.68300  -2.76900  -0.80380    45    23    46    44
 C    -2.87040  -2.81950  -1.93580    46    47    32    45
 C    -1.68470  -3.43750  -1.96440    47    46    48    52
 C    -1.33810  -4.07670  -0.77780    48    50    43    47
 C     0.89960  -4.03480  -1.29160    49    50    73    56
 C    -0.07080  -4.32720  -0.44260    50    49    48    72
 C    -0.79310  -1.63490  -3.44100    51    31    28    52
 C    -0.65280  -2.92450  -2.78450    52    56    47    51
 C     2.79720  -0.70290  -3.21700    53    38    54    79
 C     1.66670  -1.44680  -3.40240    54    53    55    28
 C     1.73230  -2.66100  -2.74540    55    56    54    81
 C     0.61640  -3.33060  -2.43680    56    55    49    52
 C    -3.47090  -2.37720   1.59280    57    58    44    61
 C    -4.35850  -1.32290   1.38330    58     2    25    57
 C    -1.11360  -3.87310   1.41940    59    43    60    72
 C    -1.26600  -3.05680   2.52890    60    59    65    61
 C    -2.45930  -2.23920   2.60310    61    57    60    62
 C    -2.35620  -0.94930   3.25570    62    63     1    61
 C    -1.12440  -0.62790   3.77490    63    66    62     7
 C     1.25960  -3.11530   2.60160    64    67    70    65
 C    -0.02810  -2.69400   3.11500    65    66    60    64
 C    -0.04460  -1.46450   3.75910    66    69    63    65
 C     2.35490  -2.29740   2.85430    67    68    76    64
 C     2.24430  -1.10270   3.50950    68    69    91    67
 C     1.06170  -0.69930   3.91240    69    68    66    15
 C     1.36120  -3.86140   1.41480    70    72    64    71
 C     2.47140  -3.67200   0.50550    71    73    75    70
 C     0.12640  -4.21590   0.89890    72    50    70    59
 C     2.15060  -3.75570  -0.85510    73    49    81    71
 C     4.27210  -2.09830  -0.21440    74    77    80    75
 C     3.55330  -2.80910   0.80920    75    76    71    74
 C     3.45620  -2.16580   2.04030    76    67    90    75
 C     4.86490  -0.85880   0.11410    77    82    93    74
 C     4.48590   0.07080  -2.00280    78    79    82    85
 C     3.86870  -1.06870  -2.38180    79    78    80    53
 C     3.79680  -2.18080  -1.55580    80    81    79    74
 C     2.73940  -2.98170  -1.81650    81    80    73    55
 C     5.00250   0.18800  -0.75150    82    78    77    86
 C     4.24300   2.40260  -0.64350    83    86    88    84
 C     3.73820   2.27150  -1.92340    84    85    35    83
 C     3.82340   1.11470  -2.57090    85    84    78    38
 C     4.85320   1.36210  -0.05660    86    83    94    82
 C     1.34080   4.07730  -0.46830    87    89    42    98
 C     3.40840   3.20290   0.06540    88    83    89    96
 C     2.50340   3.65390  -0.84430    89    87    88    35
 C     3.98710  -0.91400   2.27020    90    93    91    76
 C     3.17980  -0.20940   3.11990    91    68    90    92
 C     2.93350   1.18190   3.02720    92    95    91    14
 C     4.68080  -0.26940   1.34940    93    90    94    77
 C     4.58610   1.10290   1.25660    94    86    93    95
 C     3.67410   1.87310   2.03900    95    92    96    94
 C     3.05740   2.99440   1.42910    96    95    88    97
 C     1.74970   3.41890   1.82680    97    98    96    13
 C     0.97350   4.04150   0.84740    98    12    87    97
