    98
C98-C1-84                                                                       
 C     4.14090  -2.45100  -0.01580     1     8     3     2
 C     3.89720  -2.41550   1.32480     2     4     1    19
 C     4.66270  -1.37870  -0.65780     3     1    57    25
 C     4.20480  -1.31160   2.01020     4     2     5    58
 C     3.33620  -0.90140   2.97450     5     4    64    17
 C     1.45590  -3.33710  -2.10340     6     7    26    12
 C     2.71750  -2.89790  -1.87880     7     6     8    24
 C     3.18440  -3.18910  -0.60290     8     1     7     9
 C     2.34850  -3.66830   0.40760     9    11    19     8
 C     0.08170  -3.90480   1.20610    10    14    11    22
 C     1.06650  -4.04770   0.18800    11     9    12    10
 C     0.67630  -3.96410  -1.14200    12    38     6    11
 C    -2.22670  -3.38420   1.59390    13    89    14    23
 C    -1.27180  -3.95530   0.77260    14    13    10    37
 C     1.32500   0.60910   3.87520    15    92    63    16
 C     1.06680  -0.77300   3.83480    16    15    17    20
 C     2.12510  -1.57120   3.31510    17    16     5    18
 C     1.81050  -2.75530   2.58080    18    19    22    17
 C     2.74690  -3.11060   1.59460    19     9     2    18
 C    -0.30230  -1.16390   3.76480    20    16    21    94
 C    -0.57690  -2.41630   3.10090    21    23    22    20
 C     0.45360  -3.16440   2.42300    22    18    21    10
 C    -1.88620  -2.60080   2.68590    23    21    13    97
 C     3.16490  -1.73660  -2.56130    24    25     7    28
 C     4.16070  -1.01210  -1.88750    25    41     3    24
 C     0.60420  -2.72970  -2.99170    26    31     6    27
 C     0.91790  -1.55590  -3.65210    27    26    35    28
 C     2.25100  -1.02750  -3.42190    28    29    24    27
 C     2.42590   0.38650  -3.51900    29    30    28    40
 C     1.29720   1.12040  -3.84170    30    42    36    29
 C    -0.67220  -3.09240  -2.65890    31    26    33    38
 C    -2.86900  -2.59080  -2.17630    32    48    33    39
 C    -1.78400  -2.34830  -2.98490    33    32    31    34
 C    -1.60130  -1.10070  -3.62080    34    33    35    50
 C    -0.23400  -0.74410  -3.96160    35    36    27    34
 C     0.04130   0.59820  -4.05940    36    35    52    30
 C    -1.62440  -3.96980  -0.61820    37    38    39    14
 C    -0.60910  -3.87440  -1.50910    38    12    37    31
 C    -2.80980  -3.40840  -1.04210    39    90    37    32
 C     3.40520   1.07130  -2.73570    40    41    44    29
 C     4.24960   0.35910  -1.93960    41    40    25    56
 C     1.09980   2.39630  -3.39090    42    43    45    30
 C     1.95710   2.96890  -2.55160    43    42    44    72
 C     3.10110   2.33730  -2.23220    44    43    54    40
 C    -0.21350   2.66340  -3.30380    45    42    52    46
 C    -0.71360   3.52060  -2.33340    46    47    45    71
 C    -2.01680   3.27390  -2.03390    47    73    46    53
 C    -3.84230  -1.64650  -1.95800    48    32    83    49
 C    -3.74530  -0.35580  -2.48700    49    48    86    50
 C    -2.61510  -0.07590  -3.34750    50    51    49    34
 C    -2.18390   1.27270  -3.41900    51    52    53    50
 C    -0.90000   1.56200  -3.77820    52    51    36    45
 C    -2.75960   2.22350  -2.58260    53    87    51    47
 C     3.44910   2.77270  -0.96320    54    55    44    65
 C     4.24420   2.02280  -0.14050    55    54    56    60
 C     4.71820   0.82540  -0.70400    56    57    41    55
 C     4.99710  -0.26530   0.05600    57    58    56     3
 C     4.77230  -0.22110   1.39030    58    57    61     4
 C     2.86080   2.88160   1.70100    59    62    67    60
 C     3.97080   2.08200   1.24740    60    61    55    59
 C     4.26840   0.90390   1.96710    61    58    64    60
 C     2.18730   2.38970   2.81830    62    70    63    59
 C     2.46880   1.18680   3.40210    63    64    15    62
 C     3.47100   0.46230   2.98930    64    63    61     5
 C     2.42330   3.59460  -0.51030    65    72    67    54
 C     0.65850   3.97800   1.08530    66    69    67    75
 C     2.04890   3.67120   0.82040    67    65    59    66
 C    -1.22930   3.22730   2.42790    68    76    69    78
 C     0.11550   3.45810   2.29420    69    70    68    66
 C     0.88420   2.64130   3.07940    70    62    69    92
 C     0.16400   4.03740  -1.33570    71    72    46    75
 C     1.50530   3.74920  -1.51950    72    43    65    71
 C    -2.52350   3.55830  -0.80570    73    47    79    74
 C    -1.69140   3.98690   0.23290    74    76    73    75
 C    -0.29890   4.20730   0.00450    75    71    74    66
 C    -2.13040   3.52640   1.46000    76    68    82    74
 C    -2.99150   1.88500   2.69960    77    78    95    82
 C    -1.75790   2.17050   3.17990    78    77    93    68
 C    -3.64610   2.76370  -0.62900    79    81    73    87
 C    -4.67050   1.14320   0.71110    80    81    98    85
 C    -4.05490   2.35770   0.61210    81    82    80    79
 C    -3.25030   2.74160   1.64350    82    81    76    77
 C    -4.41980  -1.93300  -0.74090    83    84    90    48
 C    -4.88790  -0.93680   0.03100    84    83    85    91
 C    -4.86420   0.34020  -0.41600    85    84    80    86
 C    -4.33310   0.67530  -1.67350    86    87    85    49
 C    -3.77670   1.92910  -1.73470    87    53    86    79
 C    -3.87100  -1.94750   1.90620    88    89    91    97
 C    -3.45130  -2.97310   1.13640    89    88    90    13
 C    -3.74490  -2.97730  -0.18340    90    39    89    83
 C    -4.62240  -0.94820   1.38030    91    98    88    84
 C     0.35250   1.54520   3.77300    92    15    93    70
 C    -0.96190   1.22100   3.78760    93    92    78    94
 C    -1.36520  -0.14500   3.82630    94    93    96    20
 C    -3.52570   0.62240   2.81460    95    77    98    96
 C    -2.68550  -0.41030   3.35480    96    97    94    95
 C    -2.91030  -1.67980   2.85190    97    88    96    23
 C    -4.45530   0.31670   1.81450    98    91    80    95
