    98
C98-C1-210                                                                      
 C     3.50260  -2.61240  -0.54330     1     2    58     5
 C     4.19760  -1.42140  -0.79370     2    19    46     1
 C     1.23080  -4.12810  -0.06270     3    57     4    16
 C     1.92170  -3.67030   1.05050     4     3     9     5
 C     3.12420  -2.88570   0.82060     5     6     1     4
 C     3.52250  -1.92400   1.81510     6     7    18     5
 C     2.70120  -1.82550   2.93470     7    10    20     6
 C    -0.32710  -3.70820   2.16680     8    11    14     9
 C     1.10720  -3.50570   2.20740     9    10     4     8
 C     1.57410  -2.57350   3.12470    10     7    13     9
 C    -1.09510  -2.93770   3.03770    11    12    97     8
 C    -0.55190  -2.00900   3.88430    12    13    34    11
 C     0.74750  -1.83080   3.92810    13    12    23    10
 C    -0.98990  -4.09130   0.98720    14    16     8    15
 C    -2.33570  -3.63230   0.68360    15    17    96    14
 C    -0.14380  -4.33910  -0.08760    16    64    14     3
 C    -2.66990  -3.48120  -0.65730    17    63    80    15
 C     4.21540  -0.72540   1.48280    18    19    22     6
 C     4.53080  -0.50910   0.16610    19     2    18    26
 C     2.49120  -0.63640   3.61670    20    21    23     7
 C     3.06250   0.48040   3.21560    21    20    22    38
 C     3.94270   0.45230   2.19440    22    21    24    18
 C     1.25600  -0.58970   4.16450    23    20    13    36
 C     3.88970   1.70020   1.62800    24    25    22    28
 C     4.19440   1.86770   0.31020    25    24    27    26
 C     4.53250   0.75690  -0.41250    26    25    45    19
 C     3.48310   2.83660  -0.33620    27    25    31    43
 C     2.89520   2.44020   2.27010    28    38    30    24
 C     0.79710   3.62370   2.04180    29    30    33    41
 C     2.14660   3.40190   1.63140    30    28    31    29
 C     2.51830   3.59810   0.29750    31    55    27    30
 C    -1.43290   3.96170   1.18100    32    42    33    90
 C    -0.07070   4.17830   1.03420    33    32    54    29
 C    -1.38010  -0.95300   4.08300    34    12    92    35
 C    -0.92550   0.38310   4.23100    35    36    39    34
 C     0.46790   0.58680   4.25640    36    35    23    37
 C     1.04530   1.78510   3.72580    37    38    36    41
 C     2.36400   1.67170   3.26800    38    28    21    37
 C    -1.77010   1.38500   3.71220    39    35    94    40
 C    -1.19810   2.58570   3.17360    40    42    39    41
 C     0.22000   2.80040   3.12520    41    40    37    29
 C    -1.97180   3.21290   2.18890    42    32    88    40
 C     3.12160   2.69350  -1.66980    43    48    44    27
 C     3.41310   1.57520  -2.41690    44    43    45    52
 C     4.17340   0.62280  -1.73170    45    46    26    44
 C     4.03390  -0.70220  -1.96310    46    47    45     2
 C     3.19810  -1.10400  -2.91190    47    46    59    53
 C     1.98470   3.40760  -1.86460    48    43    50    55
 C    -0.20180   3.51590  -2.54140    49    69    50    56
 C     1.05600   3.05340  -2.83700    50    49    48    51
 C     1.22980   1.86360  -3.61240    51    50    52    71
 C     2.45340   1.14840  -3.38810    52    53    44    51
 C     2.41700  -0.22170  -3.62270    53    73    47    52
 C     0.36500   4.34380  -0.32040    54    55    56    33
 C     1.63600   4.00580  -0.64780    55    54    31    48
 C    -0.53500   4.16930  -1.35920    56    91    54    49
 C     1.61150  -3.83040  -1.36010    57    58    62     3
 C     2.71260  -3.06960  -1.62810    58    57    59     1
 C     2.56960  -2.28970  -2.78470    59    47    60    58
 C     1.40950  -2.20700  -3.53120    60    61    59    73
 C     0.32380  -2.98070  -3.26010    61    60    62    67
 C     0.48580  -3.83040  -2.16290    62    64    57    61
 C    -1.77900  -3.75890  -1.66540    63    64    68    17
 C    -0.55440  -4.18610  -1.37730    64    63    62    16
 C    -2.25250  -0.46280  -3.70400    65    74    76    66
 C    -1.07030  -1.12000  -4.04520    66    65    72    67
 C    -0.94940  -2.46290  -3.54990    67    61    68    66
 C    -1.99040  -2.93800  -2.73500    68    77    63    67
 C    -1.32210   2.87170  -2.99590    69    49    70    81
 C    -1.23530   1.70870  -3.73230    70    69    74    71
 C     0.03420   1.14550  -4.06010    71    70    72    51
 C     0.08050  -0.28940  -4.24410    72    73    66    71
 C     1.29740  -0.90680  -4.01710    73    53    72    60
 C    -2.33950   0.88820  -3.54960    74    65    70    84
 C    -3.87700  -0.04200  -2.19100    75    76    84    78
 C    -3.23190  -1.00590  -2.90500    76    77    75    65
 C    -3.08600  -2.22000  -2.40170    77    76    68    80
 C    -4.36750  -0.24630  -0.88830    78    75    86    79
 C    -4.14870  -1.56450  -0.32060    79    80    95    78
 C    -3.52250  -2.50560  -1.13100    80    77    17    79
 C    -2.35650   3.15220  -2.10730    81    91    83    69
 C    -3.92830   2.17880  -0.54840    82    89    83    86
 C    -3.39850   2.26990  -1.85850    83    84    81    82
 C    -3.37490   1.15520  -2.63810    84    83    75    74
 C    -4.25330   0.66540   1.29590    85    98    87    86
 C    -4.39800   0.90990  -0.06680    86    85    78    82
 C    -3.63560   1.56980   2.14360    87    88    94    85
 C    -3.16010   2.71050   1.68890    88    87    89    42
 C    -3.33200   3.04530   0.38910    89    88    90    82
 C    -2.30230   3.88210   0.10250    90    91    89    32
 C    -1.84100   3.95220  -1.13870    91    90    56    81
 C    -2.51750  -1.31770   3.43050    92    93    34    97
 C    -3.32270  -0.37710   2.98210    93    92    94    98
 C    -2.99070   0.93300   3.14850    94    87    93    39
 C    -3.93300  -1.74380   1.06830    95    98    79    96
 C    -3.03220  -2.76910   1.56300    96    97    15    95
 C    -2.36820  -2.50140   2.75090    97    92    11    96
 C    -4.04270  -0.58180   1.82940    98    85    93    95
