    98
C98-C1-128                                                                      
 C     4.10880  -0.53070   1.92050     1     2     9    65
 C     3.64520  -1.81470   1.78260     2     1     3     4
 C     3.90160  -2.36630   0.52320     3    15    62     2
 C     2.51320  -2.25040   2.53000     4     2     5    13
 C     1.79980  -3.37740   1.99680     5     6    14     4
 C     0.48910  -3.55080   2.39870     6     7     5    16
 C    -0.15300  -2.65420   3.20780     7     6    23     8
 C     0.42470  -1.46730   3.66770     8     7    13    28
 C     3.45440   0.37650   2.73550     9    67     1    12
 C     1.70260   2.40350   3.03470    10    68    93    11
 C     1.32570   1.17820   3.60040    11    10    30    12
 C     2.25920   0.07850   3.41800    12     9    13    11
 C     1.79990  -1.26730   3.36690    13     8    12     4
 C     2.09560  -3.90600   0.70390    14    15    18     5
 C     3.10200  -3.33700  -0.00780    15    14     3    33
 C    -0.49180  -4.16920   1.64210    16    17    24     6
 C    -0.19230  -4.54380   0.39910    17    16    18    20
 C     1.05830  -4.40540  -0.07410    18    17    31    14
 C    -2.91420  -3.12130  -1.33130    19    92    21    37
 C    -1.12140  -4.34810  -0.58200    20    17    21    36
 C    -2.39080  -3.86380  -0.30890    21    19    20    27
 C    -2.31680  -1.80210   3.13200    22    23    29    25
 C    -1.49150  -2.80500   2.93490    23    22    24     7
 C    -1.72490  -3.68790   1.93310    24    16    23    27
 C    -3.42840  -1.63520   2.34710    25    87    22    26
 C    -3.68740  -2.44230   1.22770    26    25    91    27
 C    -2.76840  -3.51200   1.00890    27    24    21    26
 C    -0.48950  -0.37030   3.87800    28    29    30     8
 C    -1.84550  -0.61860   3.60800    29    22    98    28
 C    -0.06850   0.98480   3.77240    30    11    28    95
 C     0.93060  -4.12120  -1.42660    31    32    36    18
 C     1.87040  -3.40850  -2.10160    32    31    33    40
 C     3.02430  -3.12990  -1.38140    33    34    32    15
 C     3.82230  -2.08290  -1.64590    34    33    35    62
 C     3.45450  -1.22680  -2.61600    35    34    44    41
 C    -0.39600  -4.03660  -1.72530    36    31    38    20
 C    -2.15980  -2.76190  -2.46260    37    59    38    19
 C    -0.86530  -3.14900  -2.67920    38    37    36    39
 C     0.03150  -2.26470  -3.35210    39    38    40    58
 C     1.41960  -2.46620  -3.07930    40    41    39    32
 C     2.25930  -1.38940  -3.27730    41    35    52    40
 C     4.22410   1.90180  -1.16320    42    63    43    48
 C     4.50620   0.58690  -1.46750    43    42    44    61
 C     3.76670   0.08240  -2.52210    44    35    43    45
 C     2.73830   0.76870  -3.14830    45    47    52    44
 C     1.05790   2.46690  -2.98590    46    47    50    56
 C     2.39630   2.05170  -2.79970    47    45    48    46
 C     3.19770   2.60840  -1.81000    48    71    47    42
 C    -0.74570   3.67580  -1.95920    49    50    57    75
 C     0.60020   3.51110  -2.08990    50    49    70    46
 C     0.47150   0.17100  -3.82830    51    52    56    58
 C     1.80480  -0.13460  -3.61590    52    41    45    51
 C    -3.48290   0.93910  -2.71710    53    81    86    54
 C    -2.26800   0.72710  -3.42470    54    60    53    55
 C    -1.30540   1.78670  -3.39840    55    57    56    54
 C     0.07550   1.53930  -3.57240    56    55    51    46
 C    -1.67020   2.91480  -2.64520    57    82    49    55
 C    -0.45800  -0.93750  -3.75900    58    60    51    39
 C    -2.63900  -1.58030  -2.92370    59    37    84    60
 C    -1.83030  -0.61730  -3.55690    60    59    54    58
 C     4.81990  -0.29860  -0.39170    61    62    65    43
 C     4.43370  -1.60970  -0.51970    62    34    61     3
 C     4.30620   2.37900   0.11020    63    66    42    64
 C     4.52230   1.51300   1.13950    64    65    67    63
 C     4.73820   0.20200   0.89610    65    64    61     1
 C     3.37660   3.36200   0.23370    66    69    63    71
 C     3.76780   1.61690   2.26380    67    68    64     9
 C     2.88060   2.60370   2.38800    68    67    69    10
 C     2.69500   3.50350   1.38880    69    72    66    68
 C     1.38040   3.97540  -0.98880    70    71    50    73
 C     2.68650   3.53010  -0.93060    71    66    48    70
 C     1.41660   3.91660   1.41410    72    69    73    93
 C     0.71650   4.27370   0.26640    73    76    72    70
 C    -2.65430   3.74450  -0.84840    74    75    77    82
 C    -1.36560   4.13540  -0.79640    75    74    76    49
 C    -0.66320   4.27520   0.39120    76    73    75    79
 C    -3.32970   3.39920   0.26590    77    74    83    78
 C    -2.63710   3.35800   1.44310    78    77    96    79
 C    -1.32560   3.78400   1.58350    79    78    94    76
 C    -4.51210   1.75180  -0.90680    80    83    85    81
 C    -3.76870   2.06790  -2.02370    81    82    53    80
 C    -2.85820   3.03820  -1.98980    82    81    74    57
 C    -4.25460   2.40660   0.24650    83    80    77    88
 C    -3.73590  -1.28550  -2.15650    84    86    92    59
 C    -4.73330   0.40740  -0.89490    85    80    86    90
 C    -4.16570  -0.04870  -2.05950    86    84    53    85
 C    -3.74410  -0.30910   2.43690    87    25    89    98
 C    -4.17090   1.71040   1.40850    88    83    89    96
 C    -4.44390   0.34350   1.45750    89    87    88    90
 C    -4.74130  -0.38930   0.26940    90    85    89    91
 C    -4.31520  -1.75450   0.15270    91    92    26    90
 C    -3.86290  -2.16150  -1.11490    92    19    84    91
 C     0.79260   3.29920   2.49650    93    94    10    72
 C    -0.55570   3.14970   2.60210    94    93    79    95
 C    -1.03830   2.00130   3.32880    95    97    94    30
 C    -3.16300   2.31700   2.17260    96    78    97    88
 C    -2.38220   1.62390   3.07320    97    98    96    95
 C    -2.75230   0.31660   3.21710    98    29    97    87
