    98
C98-C1-85                                                                       
 C     3.88390  -1.26250  -1.96410     1     2     6    63
 C     3.94270   0.06930  -2.15440     2     1     3     9
 C     4.50650   0.77070  -1.08750     3     4     2    60
 C     4.23470   2.06930  -0.88820     4     3     5    21
 C     3.38640   2.71080  -1.71700     5     4    22    10
 C     2.92400  -2.02950  -2.58550     6    65     1     7
 C     1.83650  -1.49720  -3.32180     7     6     8    16
 C     1.83540  -0.08230  -3.51660     8     7    12     9
 C     2.94180   0.67920  -2.97280     9    10     2     8
 C     2.72560   2.02140  -2.70480    10    14     5     9
 C    -0.63640  -0.22970  -3.78580    11    15    18    12
 C     0.56650   0.57260  -3.75360    12    11     8    13
 C     0.42660   1.98610  -3.41510    13    14    28    12
 C     1.51390   2.63810  -2.88340    14    10    13    23
 C    -1.83980   0.44350  -3.60670    15    97    27    11
 C     0.61140  -2.25460  -3.29360    16    17    18     7
 C     0.63050  -3.43360  -2.52500    17    66    92    16
 C    -0.65680  -1.63860  -3.49860    18    16    11    94
 C     3.36230   3.26440   0.91000    19    21    33    20
 C     2.56210   3.96760   0.05870    20    22    19    24
 C     4.20830   2.32310   0.44940    21    19     4    41
 C     2.56700   3.68000  -1.25680    22    20    23     5
 C     1.41220   3.67840  -1.95300    23    22    26    14
 C     1.37750   4.23480   0.67980    24    20    34    25
 C     0.16510   4.35630   0.01130    25    24    36    26
 C     0.20080   4.07880  -1.41690    26    23    29    25
 C    -1.91800   1.79770  -3.30730    27    89    28    15
 C    -0.81170   2.58610  -3.10030    28    27    13    29
 C    -0.92590   3.61510  -2.07710    29    30    26    28
 C    -2.10850   3.65770  -1.35800    30    90    29    35
 C     1.75990   1.51430   3.47130    31    32    42    39
 C     2.86790   1.86840   2.76980    32    31    33    40
 C     2.68630   3.05450   2.05600    33    19    32    34
 C     1.45630   3.70750   1.95000    34    38    24    33
 C    -2.14800   3.83890   0.02610    35    36    53    30
 C    -1.01700   4.09260   0.75960    36    35    25    37
 C    -0.96860   3.52640   2.09050    37    38    36    55
 C     0.33160   3.31050   2.62340    38    34    39    37
 C     0.55840   2.21950   3.43890    39    57    38    31
 C     3.72800   0.83700   2.29950    40    41    32    44
 C     4.40900   1.14140   1.11050    41    21    60    40
 C     1.46830   0.20560   3.75650    42    47    31    43
 C     2.22610  -0.87450   3.32730    43    42    51    44
 C     3.41790  -0.55060   2.55680    44    45    40    43
 C     3.87850  -1.53690   1.62340    45    46    44    59
 C     3.19340  -2.74930   1.58520    46    61    52    45
 C     0.12160   0.12700   3.99240    47    49    42    57
 C    -1.92970  -0.81480   3.60290    48    71    49    58
 C    -0.59240  -1.03220   3.84520    49    47    48    50
 C     0.06120  -2.20670   3.39990    50    49    51    73
 C     1.49250  -2.10610   3.17920    51    52    43    50
 C     2.04560  -3.02310   2.31560    52    51    75    46
 C    -3.24410   3.14370   0.49750    53    83    35    54
 C    -3.25260   2.50800   1.74250    54    53    86    55
 C    -2.06980   2.68250   2.53860    55    56    54    37
 C    -1.74310   1.59960   3.41490    56    57    58    55
 C    -0.43950   1.38730   3.78660    57    39    56    47
 C    -2.49680   0.44870   3.40840    58    87    56    48
 C     4.49700  -1.13360   0.39200    59    60    63    45
 C     4.70280   0.18590   0.17130    60    59    41     3
 C     3.12290  -3.52290   0.45150    61    62    64    46
 C     3.59160  -3.04450  -0.72270    62    63    61    65
 C     4.23600  -1.87950  -0.75410    63    62    59     1
 C     1.97150  -4.23420   0.47600    64    67    61    75
 C     2.83740  -3.17330  -1.84930    65    66    62     6
 C     1.70740  -3.86100  -1.81470    66    65    67    17
 C     1.28330  -4.45190  -0.66850    67    68    64    66
 C    -0.05010  -4.48500  -0.66760    68    67    70    92
 C    -2.05000  -3.93280   0.29310    69    70    76    78
 C    -0.78060  -4.36250   0.50130    70    69    68    74
 C    -2.69460  -1.71630   2.93830    71    48    72    79
 C    -2.13090  -2.87670   2.43560    72    71    76    73
 C    -0.74960  -3.17050   2.65880    73    74    72    50
 C    -0.09900  -4.01320   1.71230    74    75    73    70
 C     1.28280  -3.94980   1.62530    75    64    52    74
 C    -2.75590  -3.28520   1.25640    76    69    82    72
 C    -3.59910  -2.69620  -0.71800    77    78    95    82
 C    -2.53650  -3.50200  -0.94470    78    77    93    69
 C    -3.75620  -1.03670   2.36540    79    81    71    87
 C    -4.80460  -0.50690   0.35240    80    81    98    85
 C    -4.33280  -1.46650   1.20090    81    82    80    79
 C    -3.78100  -2.58460   0.65420    82    81    76    77
 C    -3.91600   2.64760  -0.58830    83    84    90    53
 C    -4.63070   1.50930  -0.49940    84    83    85    91
 C    -4.71590   0.84860   0.67670    85    84    80    86
 C    -4.04810   1.31550   1.81870    86    87    85    54
 C    -3.61550   0.31130   2.65150    87    58    86    79
 C    -3.78100   0.84550  -2.58680    88    89    91    97
 C    -3.10540   2.00990  -2.68100    89    90    88    27
 C    -3.18940   2.92470  -1.69690    90    89    30    83
 C    -4.58020   0.59890  -1.52540    91    98    88    84
 C    -0.48150  -3.90810  -1.87310    92    93    17    68
 C    -1.70310  -3.35030  -2.04480    93    92    78    94
 C    -1.87430  -2.23480  -2.91100    94    93    96    18
 C    -3.95210  -1.70920  -1.60730    95    77    98    96
 C    -3.05050  -1.45580  -2.70150    96    97    94    95
 C    -3.00480  -0.14440  -3.13440    97    88    96    15
 C    -4.65940  -0.64960  -1.02850    98    91    80    95
