    98
C98-C2-160                                                                      
 C    -4.65720   1.33760  -0.28220     1     7     2    61
 C    -4.58200   0.45040  -1.33130     2     3     1     4
 C    -4.62500  -0.88180  -1.02280     3     2    10    60
 C    -3.74550   0.81050  -2.36960     4     5     8     2
 C    -3.09070   2.01750  -2.40440     5     4     6    27
 C    -3.21690   2.96780  -1.41210     6     5    34     7
 C    -4.01210   2.55100  -0.33420     7    66     1     6
 C    -2.96590  -0.10630  -3.04680     8     9    13     4
 C    -3.01540  -1.44470  -2.78570     9     8    10    16
 C    -3.90610  -1.80120  -1.75860    10    11     3     9
 C    -3.63920  -2.83950  -0.93490    11    12    10    46
 C    -2.58730  -3.59720  -1.17890    12    11    37    17
 C    -1.82050   0.51300  -3.48610    13     8    27    14
 C    -0.61680  -0.15860  -3.72800    14    13    24    15
 C    -0.60520  -1.58910  -3.49130    15    19    14    16
 C    -1.83510  -2.19180  -3.01400    16    17     9    15
 C    -1.71170  -3.32420  -2.21660    17    21    12    16
 C     1.84890  -1.45150  -3.26040    18    22    19    23
 C     0.66000  -2.23670  -3.20700    19    18    15    20
 C     0.69040  -3.43140  -2.37990    20    21    41    19
 C    -0.52450  -3.88090  -1.89760    21    17    20    38
 C     2.97050  -1.92130  -2.52530    22    87    40    18
 C     1.80200  -0.03410  -3.50520    23    25    24    18
 C     0.56200   0.65530  -3.68700    24    23    14    30
 C     2.88720   0.71750  -3.01690    25    31    86    23
 C    -0.80980   2.65300  -2.96610    26    27    32    30
 C    -1.91090   1.84430  -3.11360    27    26    13     5
 C     1.46340   3.72770  -1.83280    28    35    29    90
 C     1.62020   2.71220  -2.76810    29    31    28    30
 C     0.46740   2.08100  -3.31400    30    29    26    24
 C     2.79780   2.02480  -2.63940    31    25    29    93
 C    -0.95020   3.71220  -2.00580    32    35    34    26
 C    -1.90700   4.17960   0.15270    33    94    65    34
 C    -2.12780   3.81340  -1.19240    34     6    33    32
 C     0.23330   4.16740  -1.45710    35    28    98    32
 C     0.35500  -4.53470   0.15180    36    38    39    42
 C    -1.90670  -4.16910  -0.14700    37    38    12    44
 C    -0.68650  -4.43830  -0.64130    38    36    37    21
 C     1.59600  -4.27580  -0.29090    39    36    56    41
 C     2.93560  -3.00080  -1.68420    40    41    22    54
 C     1.81490  -3.75130  -1.57630    41    40    39    20
 C     0.22980  -4.16180   1.47110    42    48    36    43
 C    -0.96150  -3.70710   2.00760    43    42    44    52
 C    -2.13910  -3.80760   1.19840    44    45    37    43
 C    -3.22950  -2.96330   1.41490    45    47    44    46
 C    -4.03140  -2.54790   0.34190    46    11    60    45
 C    -3.10590  -2.00800   2.40260    47    58    45    53
 C     1.46060  -3.72710   1.84300    48    42    50    56
 C     2.78430  -2.01570   2.63850    49    67    50    57
 C     1.60580  -2.70680   2.77310    50    49    48    51
 C     0.45490  -2.07060   3.31770    51    50    52    69
 C    -0.82120  -2.64220   2.96410    52    53    43    51
 C    -1.92380  -1.83220   3.10770    53    52    71    47
 C     3.81190  -2.75410  -0.62380    54    82    55    40
 C     3.47240  -3.15920   0.65050    55    56    57    54
 C     2.35560  -3.90020   0.78750    56    55    39    48
 C     3.73370  -2.24520   1.63520    57    84    55    49
 C    -3.77480  -0.80880   2.36700    58    47    59    62
 C    -4.61630  -0.44120   1.33010    59    61    60    58
 C    -4.67920  -1.33920   0.29270    60    46    59     3
 C    -4.64160   0.89100   1.03760    61    59    64     1
 C    -2.98650   0.11020   3.04380    62    63    71    58
 C    -3.03510   1.45310   2.78750    63    62    64    74
 C    -3.92950   1.81540   1.76550    64    66    61    63
 C    -2.59630   3.61280   1.18370    65    66    33    75
 C    -3.64780   2.85510   0.94810    66    65    64     7
 C     2.87250  -0.70730   3.01990    67    49    76    68
 C     1.78740   0.03870   3.50910    68    67    69    79
 C     0.54680  -0.64570   3.69080    69    68    70    51
 C    -0.63260   0.16480   3.73020    70    71    69    73
 C    -1.83740  -0.50310   3.48810    71    62    53    70
 C     0.64820   2.23470   3.21240    72    79    73    80
 C    -0.62420   1.59470   3.49280    73    70    74    72
 C    -1.85210   2.20060   3.01660    74    75    63    73
 C    -1.72350   3.33540   2.22130    75    81    65    74
 C     3.91730  -0.18390   2.29760    76    77    84    67
 C     3.95040   1.11620   2.04790    77    76    78    88
 C     2.95820   1.92590   2.53200    78    77    95    79
 C     1.83940   1.45340   3.26340    79    78    72    68
 C     0.68090   3.43300   2.38770    80    81    96    72
 C    -0.53420   3.88900   1.90420    81    75    80    94
 C     4.46250  -1.57090  -0.85700    82    54    87    83
 C     4.85900  -0.67810   0.14030    83    82    84    89
 C     4.41670  -1.08630   1.40180    84    57    76    83
 C     4.41470   1.09170  -1.40460    85    86    93    89
 C     3.93330   0.18480  -2.30470    86    87    85    25
 C     3.96410  -1.10850  -2.05110    87    86    22    82
 C     4.46100   1.58520   0.86490    88    91    77    89
 C     4.85650   0.70010  -0.13440    89    88    85    83
 C     2.34940   3.90110  -0.76550    90    92    97    28
 C     3.80770   2.76600   0.63720    91    88    92    95
 C     3.47570   3.16100  -0.64130    92    90    93    91
 C     3.73950   2.26100  -1.63340    93    92    85    31
 C    -0.68500   4.45600   0.64800    94    98    33    81
 C     2.92660   3.00970   1.69550    95    96    78    91
 C     1.80620   3.76360   1.58530    96    95    97    80
 C     1.58910   4.29580   0.30710    97    98    90    96
 C     0.35890   4.55220  -0.14340    98    94    97    35
