    98
C98-C1-40                                                                       
 C    -2.60650  -3.63950   0.12390     1    14     2     4
 C    -3.70020  -2.82060   0.21180     2     1     3     7
 C    -3.86710  -2.26520   1.47750     3    59     6     2
 C    -1.69950  -3.85430   1.17940     4    22     5     1
 C    -1.78610  -3.20530   2.37270     5     4     6    20
 C    -2.93680  -2.43450   2.48890     6    65     3     5
 C    -4.08510  -2.09340  -0.94080     7     8     2    10
 C    -4.72080  -0.86400  -0.67960     8     9    58     7
 C    -4.59170   0.21190  -1.50920     9    12     8    33
 C    -3.26970  -2.17970  -2.12590    10    11    15     7
 C    -3.15540  -1.03520  -2.90890    11    12    10    27
 C    -3.81760   0.12340  -2.60800    12     9    25    11
 C    -0.67230  -4.20690  -0.67830    13    16    14    22
 C    -1.91100  -3.78820  -1.03970    14    13     1    15
 C    -2.15240  -3.02880  -2.19620    15    14    10    18
 C     0.34350  -4.00890  -1.47690    16    13    98    17
 C     0.20090  -3.25800  -2.61660    17    50    18    16
 C    -0.99150  -2.69060  -2.98640    18    17    26    15
 C    -0.66530  -1.62880   3.70680    19    90    64    20
 C    -0.56160  -2.82420   2.99960    20    19     5    93
 C     0.76690  -3.92230   1.27840    21    22    97    93
 C    -0.48220  -4.19290   0.67980    22     4    13    21
 C    -1.94810   3.07500  -2.47480    23    34    24    31
 C    -3.13630   2.39060  -2.38270    24    23    25    32
 C    -3.09220   1.18300  -3.04780    25    12    24    28
 C    -0.85170  -1.43690  -3.65270    26    27    18    29
 C    -1.99600  -0.67470  -3.59320    27    28    26    11
 C    -1.95240   0.69250  -3.66760    28    27    30    25
 C     0.44300  -0.77080  -3.82540    29    51    52    26
 C    -0.74950   1.37070  -3.73130    30    31    28    52
 C    -0.81420   2.60990  -3.12750    31    47    30    23
 C    -3.89730   2.48170  -1.19320    32    33    36    24
 C    -4.61210   1.38070  -0.77580    33    32     9    57
 C    -1.50000   3.85910  -1.46710    34    35    37    23
 C    -2.16960   3.89850  -0.30960    35    34    36    38
 C    -3.33670   3.22060  -0.15620    36    35    55    32
 C    -0.14970   3.93420  -1.49490    37    34    40    47
 C    -1.46850   3.94030   0.85640    38    35    66    39
 C    -0.09320   4.06780   0.89980    39    38    68    40
 C     0.61640   4.12910  -0.36080    40    37    43    39
 C     3.61440   2.35530  -1.50510    41    42    80    48
 C     2.45450   3.08700  -1.65490    42    41    46    43
 C     1.95330   3.77760  -0.47600    43    40    44    42
 C     2.60230   3.51710   0.72240    44    81    43    67
 C     2.87410   0.61400  -3.05430    45    48    53    49
 C     1.55300   2.64700  -2.66440    46    47    42    49
 C     0.29520   3.18000  -2.56930    47    31    46    37
 C     3.84090   1.17940  -2.19200    48    41    85    45
 C     1.70070   1.36510  -3.34970    49    45    52    46
 C     1.42350  -2.71530  -2.86430    50    17    87    51
 C     1.62710  -1.46040  -3.45130    51    50    53    29
 C     0.49490   0.68560  -3.81330    52    30    29    49
 C     2.84030  -0.80860  -3.11010    53    51    54    45
 C     3.73450  -1.48840  -2.24020    54    84    89    53
 C    -3.38960   2.83590   1.17570    55    56    36    66
 C    -4.08400   1.72020   1.58480    56    55    57    61
 C    -4.74060   1.01860   0.55330    57    58    33    56
 C    -4.87580  -0.34630   0.58690    58    59    57     8
 C    -4.42940  -1.02330   1.64530    59    58    62     3
 C    -2.32310   1.43540   3.29050    60    63    70    61
 C    -3.55810   1.00520   2.68130    61    62    56    60
 C    -3.80910  -0.37730   2.68290    62    65    59    61
 C    -1.51170   0.43900   3.83390    63    64    72    60
 C    -1.81580  -0.88680   3.77100    64    65    63    19
 C    -2.94150  -1.28050   3.20400    65    64    62     6
 C    -2.21490   3.25770   1.79040    66    38    70    55
 C     1.89230   3.31370   1.90430    67    68    74    44
 C     0.54250   3.51520   2.03430    68    67    39    69
 C    -0.18230   2.70750   2.98200    69    68    70    71
 C    -1.61120   2.58200   2.84370    70    66    60    69
 C     0.57040   1.63620   3.59630    71    72    75    69
 C    -0.15020   0.52080   3.94600    72    63    71    90
 C     3.74560   2.10070   1.93850    73    76    74    81
 C     2.59300   2.35050   2.60870    74    73    67    75
 C     1.94200   1.40390   3.38650    75    74    71    78
 C     4.33360   0.89050   1.99460    76    73    82    77
 C     3.68070  -0.12170   2.66390    77    76    78    94
 C     2.50590   0.06550   3.37090    78    77    91    75
 C     4.98480   1.10590  -0.25340    79    80    85    82
 C     4.32070   2.28750  -0.32130    80    81    79    41
 C     3.75300   2.81340   0.77830    81    80    44    73
 C     5.00230   0.39330   0.92690    82    76    86    79
 C     4.67590  -1.59630  -0.22520    83    86    88    84
 C     4.62160  -0.88260  -1.41650    84    85    54    83
 C     4.72270   0.44770  -1.41670    85    84    79    48
 C     4.79370  -0.94540   0.94180    86    83    82    94
 C     2.27060  -3.22910  -1.90850    87    89    98    50
 C     3.85040  -2.66140  -0.30630    88    83    89    96
 C     3.38490  -2.63810  -1.59860    89    87    54    88
 C     0.38200  -0.77480   3.88370    90    19    91    72
 C     1.66950  -1.06870   3.50470    91    90    78    92
 C     1.89370  -2.32150   2.78940    92    95    93    91
 C     0.74230  -3.15520   2.48960    93    21    20    92
 C     3.96130  -1.30340   1.99270    94    86    77    95
 C     3.06440  -2.38810   1.96230    95    94    96    92
 C     3.04580  -3.15590   0.75430    96    97    88    95
 C     1.88230  -3.85980   0.40770    97    96    98    21
 C     1.58420  -3.92150  -0.97190    98    16    87    97
