    98
C98-C2-188                                                                      
 C     3.62050   2.05930  -1.64460     1     4    67     2
 C     2.62820   3.02700  -1.78390     2     1    61     3
 C     1.63690   2.79370  -2.81920     3     6    14     2
 C     3.68450   0.94040  -2.43530     4     5    12     1
 C     2.74960   0.72480  -3.35530     5     4     8     6
 C     1.73880   1.61410  -3.54600     6     5    20     3
 C     1.98260  -2.65950  -2.85710     7     9    97    27
 C     2.34620  -0.53460  -3.63590     8     5    26     9
 C     2.86910  -1.63030  -2.96550     9     7     8    10
 C     3.82800  -1.44590  -1.94420    10    12     9    11
 C     3.80710  -2.29770  -0.78750    11    13    96    10
 C     4.22970  -0.11020  -1.74820    12    70     4    10
 C     4.20190  -1.72240   0.42000    13    79    69    11
 C     0.32950   3.29740  -2.72050    14    15     3    17
 C     0.09190   4.10230  -1.60870    15    16    63    14
 C    -1.14570   4.23430  -1.04330    16    19    40    15
 C    -0.80100   2.56730  -3.26370    17    18    21    14
 C    -2.02770   2.80190  -2.65550    18    19    24    17
 C    -2.19220   3.62170  -1.57180    19    16    34    18
 C     0.65730   0.88360  -4.01100    20    26    21     6
 C    -0.65120   1.28040  -3.86360    21    20    17    22
 C    -1.66510   0.24360  -3.76230    22    23    21    29
 C    -2.87580   0.59280  -3.11470    23    25    24    22
 C    -3.02780   1.86820  -2.58750    24    18    23    35
 C    -3.62070  -0.37290  -2.46120    25    31    23    36
 C     1.02970  -0.43900  -4.05980    26    28    20     8
 C     0.66550  -2.58840  -3.34040    27    90    28     7
 C     0.11560  -1.45320  -3.91270    28    26    27    29
 C    -1.26240  -1.16390  -3.74680    29    28    30    22
 C    -2.05780  -2.13520  -3.01690    30    31    91    29
 C    -3.21670  -1.68420  -2.40320    31    25    86    30
 C    -3.72220   2.21970   1.26790    32    33    38    45
 C    -3.11960   3.26260   0.60720    33    32    34    39
 C    -3.20620   3.18360  -0.78990    34    19    35    33
 C    -3.79200   2.13470  -1.44870    35    37    34    24
 C    -4.38990  -0.09950  -1.33560    36    57    37    25
 C    -4.44460   1.15220  -0.77800    37    35    36    38
 C    -4.41360   1.22060   0.60430    38    59    37    32
 C    -1.98260   3.83200   1.20450    39    33    40    42
 C    -1.04300   4.38020   0.30910    40    41    16    39
 C     0.28420   4.45420   0.54790    41    44    40    63
 C    -1.44560   3.28810   2.42170    42    43    46    39
 C    -0.07850   3.45200   2.61990    43    49    44    42
 C     0.76980   4.03400   1.70360    44    41    64    43
 C    -3.19650   1.67730   2.43050    45    51    32    46
 C    -2.03370   2.13110   3.03430    46    45    42    47
 C    -1.23560   1.15480   3.75530    47    48    46    54
 C     0.14440   1.45280   3.90450    48    50    49    47
 C     0.69290   2.59090   3.33610    49    43    48    71
 C     1.05300   0.42740   4.04520    50    56    48    72
 C    -3.59990   0.36450   2.48500    51    45    53    59
 C    -3.00730  -1.87660   2.60960    52    81    53    60
 C    -2.84990  -0.60120   3.13740    53    51    52    54
 C    -1.63420  -0.25200   3.77780    54    53    55    47
 C    -0.62320  -1.29260   3.87140    55    56    82    54
 C     0.68690  -0.89720   4.00790    56    50    55    74
 C    -4.41910  -1.23560  -0.57030    57    36    86    58
 C    -4.43120  -1.16540   0.81480    58    60    59    57
 C    -4.37810   0.08810   1.36620    59    38    58    51
 C    -3.76750  -2.15020   1.47030    60    58    88    52
 C     2.29630   3.72930  -0.60240    61    63     2    62
 C     2.86060   3.35370   0.67530    62    64    66    61
 C     1.02170   4.28050  -0.60340    63    41    15    61
 C     2.02310   3.51750   1.78930    64    44    71    62
 C     3.83660   1.45010   1.92550    65    68    73    66
 C     3.80680   2.30330   0.76870    66    67    62    65
 C     4.19540   1.71770  -0.43540    67    70     1    66
 C     4.23730   0.11380   1.72460    68    69    76    65
 C     4.59080  -0.39750   0.51820    69    70    68    13
 C     4.58830   0.39840  -0.54350    70    69    12    67
 C     2.00900   2.66320   2.85910    71    73    64    49
 C     2.37000   0.52940   3.62050    72    75    73    50
 C     2.88620   1.62980   2.95700    73    71    72    65
 C     1.77150  -1.62560   3.54430    74    75    56    77
 C     2.77750  -0.73170   3.34060    75    76    72    74
 C     3.70450  -0.94510   2.41030    76    75    68    79
 C     1.66500  -2.80800   2.81950    77    74    85    78
 C     2.65200  -3.03580   1.78000    78    79    95    77
 C     3.64480  -2.07200   1.63150    79    76    13    78
 C    -2.16920  -3.62410   1.59630    80    83    88    81
 C    -2.00820  -2.80900   2.68420    81    52    80    82
 C    -0.77570  -2.58240   3.27890    82    81    55    85
 C    -1.12670  -4.23840   1.05480    83    80    93    84
 C     0.11630  -4.11140   1.62030    84    83    98    85
 C     0.35410  -3.30780   2.73230    85    84    77    82
 C    -3.73670  -2.23570  -1.24240    86    87    57    31
 C    -3.12030  -3.27550  -0.59170    87    86    88    94
 C    -3.18990  -3.20100   0.80550    88    80    60    87
 C     0.75600  -4.03340  -1.70170    89    92    97    90
 C    -0.09690  -3.45540  -2.61720    90    27    89    91
 C    -1.46380  -3.29210  -2.40950    91    90    30    94
 C     0.28740  -4.45250  -0.53690    92    89    93    98
 C    -1.04300  -4.38950  -0.29980    93    92    83    94
 C    -1.98370  -3.84340  -1.18840    94    87    93    91
 C     2.30990  -3.73130   0.59580    95    98    78    96
 C     2.86170  -3.34970  -0.68710    96    97    11    95
 C     2.01180  -3.51760  -1.79070    97    89     7    96
 C     1.03570  -4.28480   0.60460    98    92    84    95
