    98
C98-C1-32                                                                       
 C    -0.54570  -1.01280   3.72460     1    58    17     2
 C     0.57250  -0.20330   3.75980     2     1    12     3
 C     1.84710  -0.80900   3.41330     3     4     2    57
 C     2.92600   0.05090   3.06060     4     5     3     7
 C     3.98750  -0.47880   2.29360     5    54     6     4
 C     4.77450   0.27290   1.43150     6     9    20     5
 C     2.69110   1.45300   2.95910     7     8     4    13
 C     3.52280   2.13400   2.03040     8     9    10     7
 C     4.48920   1.56880   1.27600     9     6     8    21
 C     3.04220   3.16350   1.27610    10    11     8    22
 C     1.86820   3.64670   1.52360    11    10    42    14
 C     0.28420   1.20690   3.63360    12    13     2    15
 C     1.39390   1.99220   3.21230    13    14    12     7
 C     1.05910   3.14830   2.51410    14    98    11    13
 C    -1.11470   1.67180   3.40050    15    16    97    12
 C    -2.20670   0.75490   3.39690    16    17    15    92
 C    -1.84700  -0.57230   3.59660    17    63     1    16
 C     5.09910   0.08770  -0.89130    18    26    19    20
 C     4.69810   1.37900  -1.05050    19    21    18    32
 C     5.16190  -0.48020   0.36740    20    25     6    18
 C     4.46940   2.14980   0.02170    21    19    22     9
 C     3.52050   3.09860  -0.01410    22    21    10    41
 C     4.23720  -2.45100  -0.45820    23    46    25    24
 C     4.12850  -1.87940  -1.70200    24    26    28    23
 C     4.68740  -1.72530   0.59000    25    20    23    54
 C     4.51170  -0.60780  -1.90100    26    24    18    27
 C     3.71000   0.21580  -2.65410    27    26    32    30
 C     3.01080  -2.37180  -2.30400    28    24    47    29
 C     2.19890  -1.61930  -3.15080    29    28    49    30
 C     2.56060  -0.21870  -3.29800    30    27    37    29
 C     2.77850   2.43910  -2.20790    31    32    41    36
 C     3.81680   1.49000  -2.12510    32    27    19    31
 C    -0.94210   3.98310  -1.13510    33    82    89    34
 C     0.31830   3.75380  -1.69670    34    33    43    35
 C     0.36110   2.81400  -2.77520    35    34    38    36
 C     1.61570   2.10490  -2.98510    36    31    37    35
 C     1.55800   0.75770  -3.52680    37    40    30    36
 C    -0.90730   2.24360  -3.19270    38    39    83    35
 C    -0.84870   0.96130  -3.70790    39    40    78    38
 C     0.31410   0.25080  -3.81340    40    39    37    48
 C     2.66590   3.35120  -1.11450    41    43    22    31
 C     1.12210   4.15100   0.51680    42    87    11    43
 C     1.43250   3.94710  -0.84650    43    41    42    34
 C     1.31200  -3.95950   0.81700    44    55    45    52
 C     2.57670  -3.47710   0.91610    45    44    46    53
 C     3.20300  -3.30180  -0.31180    46    23    45    47
 C     2.47000  -3.34090  -1.49730    47    51    28    46
 C    -0.01490  -1.09660  -3.71840    48    68    49    40
 C     0.85980  -2.05590  -3.28080    49    48    29    50
 C     0.28090  -3.13950  -2.50980    50    51    49    70
 C     1.15670  -3.71180  -1.56440    51    47    52    50
 C     0.61910  -4.13860  -0.37860    52    72    51    44
 C     2.90730  -2.60270   2.00150    53    54    45    57
 C     3.96780  -1.75510   1.77440    54    53     5    25
 C     0.38110  -3.76200   1.76680    55    44    59    56
 C     0.63720  -2.87230   2.80760    56    58    55    57
 C     1.86370  -2.18910   2.89830    57    56    53     3
 C    -0.51360  -2.31490   3.26940    58    56    61     1
 C    -0.87480  -3.98090   1.22940    59    60    72    55
 C    -2.02120  -3.48390   1.74580    60    59    61    66
 C    -1.77560  -2.64550   2.83070    61    63    58    60
 C    -3.71430  -1.44070   2.44420    62    63    91    67
 C    -2.58910  -1.61580   3.11440    63    62    61    17
 C    -3.72570  -2.50750  -1.28520    64    75    73    65
 C    -2.94340  -3.35940  -0.50310    65    64    71    66
 C    -3.12900  -3.23550   0.92430    66    60    67    65
 C    -4.02990  -2.25620   1.37170    67    76    62    66
 C    -1.36340  -1.19590  -3.58120    68    48    69    78
 C    -1.97600  -2.24410  -2.91420    69    73    68    70
 C    -1.15250  -3.19800  -2.27730    70    69    71    50
 C    -1.67700  -3.75030  -1.04060    71    72    65    70
 C    -0.71480  -4.14500  -0.13040    72    52    59    71
 C    -3.23440  -1.94040  -2.44390    73    69    64    80
 C    -4.70870  -0.53640  -1.57690    74    77    80    75
 C    -4.66060  -1.63570  -0.77010    75    76    74    64
 C    -4.79870  -1.49000   0.56870    76    67    75    90
 C    -4.90450   0.69240  -1.03660    77    74    85    93
 C    -1.90660   0.07950  -3.64560    78    79    39    68
 C    -3.13750   0.38610  -3.14300    79    78    80    86
 C    -3.82970  -0.68980  -2.60040    80    74    79    73
 C    -2.98640   3.41060  -0.50970    81    84    88    82
 C    -2.11570   3.46660  -1.58500    82    33    83    81
 C    -2.18680   2.57730  -2.63980    83    82    38    86
 C    -4.00290   2.58040  -0.48150    84    81    85    94
 C    -4.22790   1.76150  -1.55560    85    77    84    86
 C    -3.30750   1.68290  -2.62130    86    79    85    83
 C    -0.12030   4.17280   1.01650    87    89    42    98
 C    -2.33360   3.72950   0.63340    88    89    81    96
 C    -1.14280   4.18580   0.21580    89    87    88    33
 C    -4.92740  -0.23680   1.12210    90    93    91    76
 C    -4.18110  -0.16780   2.27040    91    62    90    92
 C    -3.44950   0.97720   2.69140    92    95    91    16
 C    -5.00120   0.84510   0.32970    93    90    94    77
 C    -4.37960   1.99390   0.70610    94    93    84    95
 C    -3.58980   2.13380   1.88410    95    96    92    94
 C    -2.53040   3.05360   1.86660    96    95    88    97
 C    -1.34720   2.87120   2.64990    97    98    96    15
 C    -0.20780   3.52460   2.22930    98    14    87    97
