    98
C98-C1-202                                                                      
 C     4.69620   0.83140  -0.18790     1     2    60     5
 C     4.23900   2.15180  -0.34670     2    14    47     1
 C     4.29970  -1.90920   0.15310     3     4    59     9
 C     4.37220  -1.11700   1.27980     4     3     6     5
 C     4.59120   0.27180   1.12600     5    12     4     1
 C     3.53710  -1.57250   2.30660     6    10     7     4
 C     2.72390  -2.68200   2.24130     7     8     6    23
 C     2.69700  -3.49560   1.14250     8     7     9    30
 C     3.51830  -3.05430   0.10030     9    66     3     8
 C     2.90400  -0.70130   3.13550    10    11     6    15
 C     3.12830   0.59650   3.03130    11    10    12    21
 C     3.97870   1.09740   2.08800    12    13    11     5
 C     3.52960   2.35710   1.86150    13    14    12    35
 C     3.68400   2.90210   0.65630    14    13    33     2
 C     1.69050  -1.17990   3.53040    15    10    23    19
 C    -1.76350  -0.01910   3.58920    16    17    18    41
 C    -2.95530  -0.52690   3.04060    17    27    86    16
 C    -0.67680  -0.93780   3.71900    18    19    16    26
 C     0.60720  -0.34920   3.84420    19    15    18    20
 C     0.83230   1.07110   3.71720    20    21    42    19
 C     2.11200   1.47360   3.31700    21    35    11    20
 C     0.36840  -3.04640   2.78760    22    23    28    26
 C     1.58320  -2.44510   3.00630    23    22    15     7
 C    -2.04260  -3.61490   1.57360    24    31    25    90
 C    -2.03970  -2.68750   2.60740    25    27    24    26
 C    -0.80930  -2.31630   3.20910    26    25    22    18
 C    -3.08520  -1.79640   2.54790    27    17    25    93
 C     0.34540  -3.99210   1.70920    28    31    22    30
 C     1.22140  -4.35850  -0.50580    29    94    65    30
 C     1.49590  -4.16430   0.86320    30     8    29    28
 C    -0.89490  -4.20160   1.13180    31    24    98    28
 C     0.52410   4.40860   0.16580    32    40    34    44
 C     2.72750   3.74010   0.17890    33    14    46    34
 C     1.60580   4.07890   0.92680    34    32    33    37
 C     2.37660   2.60360   2.59320    35    21    37    13
 C     0.03870   3.18630   2.64960    36    39    37    42
 C     1.36870   3.45480   2.19020    37    35    34    36
 C    -2.27870   3.20380   1.95900    38    39    43    55
 C    -1.01850   3.73590   1.87660    39    38    40    36
 C    -0.73900   4.31180   0.63620    40    32    57    39
 C    -1.54760   1.40580   3.43610    41    43    42    16
 C    -0.23770   1.96590   3.43230    42    20    41    36
 C    -2.54610   2.10800   2.73920    43    87    38    41
 C     0.47680   4.22740  -1.21630    44    49    45    32
 C     1.50870   3.68490  -1.91460    45    44    46    53
 C     2.68000   3.54030  -1.19230    46    47    45    33
 C     3.59890   2.58520  -1.48400    47    48    46     2
 C     3.34030   1.73030  -2.47640    48    47    61    54
 C    -0.81140   4.02530  -1.56560    49    44    57    51
 C    -2.43480   2.64710  -2.45840    50    51    67    58
 C    -1.17040   3.15220  -2.59400    51    50    49    52
 C    -0.16550   2.39510  -3.25920    52    51    53    69
 C     1.18510   2.74320  -2.94400    53    54    52    45
 C     2.14860   1.78280  -3.17100    54    71    53    48
 C    -3.20250   3.21560   0.91180    55    82    56    38
 C    -2.83480   3.66120  -0.33310    56    57    58    55
 C    -1.60160   4.19960  -0.43910    57    56    40    49
 C    -3.29360   2.92880  -1.39340    58    84    56    50
 C     4.33710  -1.35890  -1.11530    59    60     3    64
 C     4.50880  -0.01510  -1.31450    60    59    61     1
 C     3.79080   0.46380  -2.41690    61    48    62    60
 C     2.89380  -0.29410  -3.15550    62    63    71    61
 C     2.72640  -1.62210  -2.94760    63    62    64    74
 C     3.53390  -2.14480  -1.92680    64    66    59    63
 C     1.98060  -3.80040  -1.49120    65    66    29    75
 C     3.11800  -3.19720  -1.19480    66    65    64     9
 C    -2.75350   1.40370  -2.93470    67    50    76    68
 C    -1.81260   0.53520  -3.52340    68    67    69    79
 C    -0.48760   1.02930  -3.71550    69    68    70    52
 C     0.55580   0.04790  -3.83600    70    71    69    73
 C     1.85410   0.50660  -3.59160    71    54    62    70
 C    -1.02170  -1.82900  -3.39620    72    79    73    80
 C     0.32880  -1.37130  -3.66430    73    70    72    74
 C     1.45230  -2.18100  -3.22610    74    75    63    73
 C     1.16100  -3.33120  -2.50310    75    81    65    74
 C    -3.85040   0.99930  -2.21730    76    77    84    67
 C    -4.08800  -0.29480  -2.06280    77    76    78    88
 C    -3.24600  -1.21270  -2.63440    78    95    77    79
 C    -2.08120  -0.86930  -3.36610    79    78    72    68
 C    -1.22650  -3.06140  -2.64880    80    81    96    72
 C    -0.09550  -3.73260  -2.21480    81    75    80    94
 C    -4.06300   2.16050   1.07680    82    87    55    83
 C    -4.62960   1.45880   0.00750    83    84    82    89
 C    -4.16520   1.89220  -1.23180    84    58    76    83
 C    -4.50590  -0.48840   1.40750    85    86    93    89
 C    -3.88250   0.23920   2.37990    86    87    85    17
 C    -3.67410   1.53270   2.22540    87    86    82    43
 C    -4.64200  -0.76880  -0.90130    88    91    77    89
 C    -4.86800   0.08050   0.17950    89    88    85    83
 C    -2.93440  -3.53150   0.49700    90    92    97    24
 C    -4.19090  -2.05540  -0.78200    91    88    92    95
 C    -3.92500  -2.60840   0.45300    92    90    93    91
 C    -4.04110  -1.77290   1.52770    93    92    85    27
 C    -0.02870  -4.41370  -1.00960    94    98    29    81
 C    -3.37340  -2.34740  -1.87850    95    96    78    91
 C    -2.38480  -3.27400  -1.84960    96    95    97    80
 C    -2.24840  -3.93820  -0.62190    97    98    90    96
 C    -1.07400  -4.42460  -0.21220    98    94    97    31
