    98
C98-C1-90                                                                       
 C     3.90030  -0.29670  -2.55570     1     3     9     2
 C     3.43780   0.92670  -2.92460     2     4     1    21
 C     4.62740  -0.44360  -1.42750     3     1     8    59
 C     3.73650   1.99640  -2.17400     4     2     5    60
 C     2.78830   2.95580  -2.03810     5     4    66    19
 C     3.55120  -2.58830  -1.02430     6     8    27     7
 C     2.79070  -2.41170  -2.25480     7     9    13     6
 C     4.41570  -1.54580  -0.65550     8     3    39     6
 C     2.98530  -1.22090  -2.93780     9     1     7    10
 C     1.96030  -0.54790  -3.59140    10    11    21     9
 C     0.70170  -1.05160  -3.73490    11    10    24    12
 C     0.46760  -2.38520  -3.22360    12    16    11    13
 C     1.52500  -3.01250  -2.44700    13    14     7    12
 C     1.12090  -3.87470  -1.43750    14    36    26    13
 C    -1.87360  -1.84900  -3.29420    15    89    25    16
 C    -0.87920  -2.77230  -2.98570    16    15    35    12
 C     0.77240   4.14650  -0.75420    17    79    65    18
 C     0.45060   3.61160  -2.02570    18    19    17    94
 C     1.51370   2.92660  -2.66270    19    18     5    20
 C     1.21210   1.77990  -3.45530    20    21    23    19
 C     2.22090   0.80890  -3.52710    21     2    10    20
 C    -1.22320   2.16770  -3.13200    22    97    94    23
 C    -0.12530   1.35750  -3.65300    23    20    22    24
 C    -0.34580  -0.07220  -3.87320    24    25    11    23
 C    -1.61420  -0.55250  -3.68020    25    24    98    15
 C     1.81620  -4.00400  -0.24900    26    29    14    27
 C     3.00100  -3.33750   0.03460    27    26     6    28
 C     3.19440  -2.93190   1.40150    28    31    38    27
 C     0.87140  -4.30570   0.69640    29    30    32    26
 C     1.01310  -3.85850   1.93790    30    29    31    51
 C     2.13090  -3.19400   2.27650    31    30    40    28
 C    -0.35520  -4.39120   0.15510    32    29    36    33
 C    -1.50870  -4.04660   0.86090    33    34    32    50
 C    -2.55110  -3.69730   0.06430    34    33    52    37
 C    -1.21920  -3.69160  -1.96240    35    36    37    16
 C    -0.20310  -4.17100  -1.20350    36    35    14    32
 C    -2.44050  -3.56800  -1.31460    37    90    35    34
 C     3.94210  -1.77000   1.67730    38    39    42    28
 C     4.58520  -1.12410   0.65910    39    38     8    58
 C     1.72070  -2.31590   3.23350    40    41    31    43
 C     2.37810  -1.18880   3.40020    41    40    42    49
 C     3.49580  -0.91130   2.68660    42    41    56    38
 C     0.36210  -2.36540   3.41090    43    51    40    47
 C    -2.45970  -0.03750   3.33610    44    45    46    73
 C    -3.65150   0.01750   2.57680    45    82    55    44
 C    -1.78670  -1.29500   3.38040    46    47    44    54
 C    -0.41320  -1.25720   3.76050    47    43    46    48
 C     0.30900  -0.01720   3.93090    48    49    74    47
 C     1.69940  -0.05520   3.73470    49    41    67    48
 C    -1.38130  -3.43180   2.14000    50    51    33    54
 C    -0.09380  -3.38400   2.61970    51    43    50    30
 C    -3.53130  -2.84590   0.49610    52    34    85    53
 C    -3.43530  -2.20610   1.73760    53    55    52    54
 C    -2.29790  -2.41710   2.56500    54    53    50    46
 C    -4.10460  -1.01040   1.77440    55    53    45    87
 C     3.60270   0.46060   2.63730    56    57    42    67
 C     4.26460   1.11230   1.62770    57    56    58    62
 C     4.80960   0.25610   0.64870    58    59    39    57
 C     4.89900   0.64410  -0.65090    59    60    58     3
 C     4.46370   1.86510  -1.01530    60    59    63     4
 C     2.62910   2.91950   1.93470    61    64    69    62
 C     3.78220   2.38760   1.25890    62    57    63    61
 C     3.93830   2.72740  -0.10420    63    60    66    62
 C     1.81410   3.76370   1.18730    64    72    65    61
 C     1.98620   3.98320  -0.15410    65    66    17    64
 C     2.99790   3.45490  -0.77900    66    65    63     5
 C     2.47550   0.98450   3.27230    67    69    49    56
 C     0.51050   2.35040   3.22920    68    71    69    74
 C     1.92220   2.20120   2.96080    69    67    61    68
 C    -1.50650   3.30710   2.31110    70    71    75    77
 C    -0.15840   3.33980   2.47040    71    70    72    68
 C     0.50390   3.96490   1.43830    72    64    71    79
 C    -1.72390   1.20530   3.50410    73    75    74    44
 C    -0.31460   1.23410   3.72610    74    48    73    68
 C    -2.28670   2.31950   2.86350    75    83    70    73
 C    -3.34130   3.15540   1.11040    76    77    80    83
 C    -2.15740   3.77120   1.16340    77    76    78    70
 C    -1.45290   4.12620   0.02380    78    79    77    93
 C    -0.13810   4.28540   0.23600    79    78    17    72
 C    -3.86800   2.84630  -0.09350    80    76    84    95
 C    -4.77390   0.88870   0.85480    81    87    82    84
 C    -4.13790   1.17140   2.02560    82    83    81    45
 C    -3.44960   2.29720   2.16040    83    82    75    76
 C    -4.61420   1.72000  -0.22390    84    80    91    81
 C    -4.10920  -2.25470  -0.62430    85    90    86    52
 C    -4.70630  -1.01650  -0.58530    86    85    87    92
 C    -4.77880  -0.45310   0.67450    87    81    86    55
 C    -3.62370  -0.58720  -2.68700    88    89    92    98
 C    -3.11090  -1.84380  -2.69850    89    90    88    15
 C    -3.38440  -2.68950  -1.69620    90    89    37    85
 C    -4.39560   1.21100  -1.46610    91    84    92    96
 C    -4.47610  -0.14250  -1.69150    92    91    88    86
 C    -1.89040   3.67480  -1.25760    93    95    78    94
 C    -0.91520   3.29690  -2.25880    94    18    93    22
 C    -3.12790   3.04650  -1.23910    95    96    80    93
 C    -3.44820   2.03160  -2.09720    96    95    97    91
 C    -2.51200   1.56570  -3.00710    97    98    96    22
 C    -2.67710   0.22910  -3.30250    98    25    97    88
