    98
C98-C1-143                                                                      
 C     3.01280  -2.46800  -2.09400     1     2     6    64
 C     3.61500  -1.26670  -2.33260     2     1     3     9
 C     4.43420  -0.81130  -1.29600     3     4     2    61
 C     4.65820   0.49920  -1.09780     4     3     5    19
 C     4.06820   1.41030  -1.90330     5    20     4    10
 C     1.79930  -2.81470  -2.65370     6     1    66     7
 C     1.07880  -1.95050  -3.46750     7     6    15     8
 C     1.63700  -0.63110  -3.69750     8     9    12     7
 C     2.91830  -0.32530  -3.14820     9    10     2     8
 C     3.18930   1.01550  -2.88080    10     5    25     9
 C    -0.61470   0.13370  -4.02280    11    12    16    88
 C     0.71640   0.46690  -3.92360    12    11    24     8
 C    -2.26430  -3.01010  -2.30310    13    94    72    14
 C    -0.93290  -3.21540  -2.65790    14    13    67    15
 C    -0.31090  -2.21410  -3.50280    15    16     7    14
 C    -1.10790  -1.14100  -3.86080    16    95    11    15
 C     4.31270   1.89200   0.73900    17    19    18    33
 C     3.80010   2.84660  -0.08820    18    22    20    17
 C     4.76260   0.73110   0.24170    19    17    32     4
 C     3.65600   2.60010  -1.41340    20     5    18    26
 C     0.67660   4.25880   0.68210    21    93    23    35
 C     2.84410   3.52780   0.56270    22    18    23    34
 C     1.76220   4.07580  -0.11300    23    21    22    28
 C     0.99370   1.81700  -3.50750    24    25    12    29
 C     2.25350   2.03080  -3.01190    25    24    26    10
 C     2.53740   3.01070  -2.07740    26    20    25    28
 C     0.22560   3.70080  -2.02940    27    28    92    29
 C     1.54740   3.79050  -1.50250    28    26    27    23
 C    -0.05820   2.72070  -3.07940    29    89    24    27
 C     3.89660  -0.47870   2.14460    30    32    41    31
 C     3.36050   0.77300   2.66130    31    33    38    30
 C     4.57390  -0.43310   0.91160    32    19    61    30
 C     3.61980   1.92180   1.91460    33    17    34    31
 C     2.74140   2.97550   1.84840    34    36    33    22
 C     0.59110   3.76510   1.98660    35    54    36    21
 C     1.57810   3.00490   2.57200    36    34    35    37
 C     1.21770   1.91150   3.41300    37    36    38    56
 C     2.14860   0.80280   3.43190    38    39    31    37
 C     1.61180  -0.42990   3.73240    39    38    40    58
 C     2.14750  -1.61550   3.27200    40    43    39    41
 C     3.25440  -1.70200   2.42760    41    40    30    42
 C     3.23490  -2.79040   1.48590    42    45    60    41
 C     1.11640  -2.50790   3.26530    43    44    46    40
 C     1.11350  -3.51530   2.39730    44    43    45    47
 C     2.13500  -3.65420   1.52270    45    44    62    42
 C    -0.04540  -1.94290   3.67060    46    43    58    49
 C    -0.07720  -3.94950   1.87100    47    44    65    48
 C    -1.30810  -3.43770   2.25610    48    47    70    49
 C    -1.29630  -2.37710   3.24120    49    46    52    48
 C    -2.86580   0.92140   3.17370    50    59    80    51
 C    -2.01900  -0.05510   3.68610    51    50    57    52
 C    -2.31310  -1.41620   3.29780    52    53    49    51
 C    -3.37310  -1.62800   2.41540    53    81    69    52
 C    -0.71970   3.59090   2.26140    54    35    55    84
 C    -1.14880   2.60090   3.13080    55    59    54    56
 C    -0.19930   1.69690   3.69140    56    55    57    37
 C    -0.68180   0.36910   3.97440    57    58    51    56
 C     0.25940  -0.63130   3.98930    58    57    46    39
 C    -2.44900   2.19090   2.88780    59    50    55    87
 C     3.80200  -2.59630   0.20660    60    61    64    42
 C     4.46350  -1.43560  -0.04020    61    60    32     3
 C     1.55960  -4.22160   0.42030    62    63    45    65
 C     2.04430  -3.92990  -0.78350    63    62    64    66
 C     3.14140  -3.14730  -0.89260    64    63     1    60
 C     0.20820  -4.38750   0.59510    65    62    47    68
 C     1.19720  -3.76120  -1.83710    66    63     6    67
 C    -0.17330  -3.95400  -1.73750    67    66    14    68
 C    -0.71570  -4.30430  -0.44060    68    65    71    67
 C    -3.37200  -2.61020   1.44610    69    74    53    70
 C    -2.32580  -3.51350   1.28020    70    69    48    71
 C    -2.02460  -3.92960  -0.07340    71    72    68    70
 C    -2.79710  -3.35460  -1.07640    72    75    13    71
 C    -4.57130  -0.86230   0.66840    73    74    81    76
 C    -4.12740  -2.12760   0.40290    74    75    73    69
 C    -3.83280  -2.48400  -0.84300    75    74    78    72
 C    -4.71790   0.14150  -0.31790    76    73    83    77
 C    -4.36580  -0.24670  -1.64940    77    78    96    76
 C    -3.95210  -1.57540  -1.85050    78    75    94    77
 C    -4.09680   1.67390   1.44980    79    80    87    83
 C    -3.90700   0.64580   2.32150    80    81    79    50
 C    -4.14860  -0.59930   1.94180    81    80    73    53
 C    -3.90990   2.36560  -0.77570    82    98    85    83
 C    -4.48260   1.46940   0.11360    83    82    79    76
 C    -1.46640   4.02360   1.17640    84    86    93    54
 C    -3.05450   3.37710  -0.38120    85    86    82    91
 C    -2.71480   3.55440   0.93470    86    84    87    85
 C    -3.22590   2.66790   1.83030    87    86    79    59
 C    -1.63790   1.01790  -3.72390    88    89    11    97
 C    -1.39640   2.27850  -3.22550    89    88    90    29
 C    -2.40560   2.74020  -2.39350    90    91    89    98
 C    -2.12680   3.61140  -1.38810    91    90    92    85
 C    -0.84810   4.08690  -1.17260    92    91    93    27
 C    -0.57590   4.34000   0.16920    93    21    84    92
 C    -2.99780  -1.94110  -2.75440    94    95    78    13
 C    -2.41370  -1.01720  -3.50970    95    94    97    16
 C    -3.74140   0.70810  -2.49970    96    98    97    77
 C    -2.76930   0.28390  -3.39560    97    95    88    96
 C    -3.52710   1.98220  -2.03650    98    82    96    90
