    98
C98-C1-141                                                                      
 C     1.75370   1.53220   3.59350     1     6     2    62
 C     2.43380   2.39960   2.77420     2     1     3     9
 C     3.58340   1.86240   2.18170     3     4    61     2
 C     3.98690   2.21940   0.93750     4     5     3    19
 C     3.30290   3.15630   0.28900     5     4    20    10
 C     0.39840   1.59420   3.77470     6     1     7    73
 C    -0.40570   2.55210   3.18260     7     6    15     8
 C     0.24020   3.46550   2.25860     8     9    12     7
 C     1.65990   3.36210   2.08170     9    10     2     8
 C     2.16990   3.73650   0.84020    10    27     5     9
 C    -1.89700   3.66420   1.16690    11    12    16    90
 C    -0.55770   3.96640   1.16340    12    11    26     8
 C    -3.43220   0.45030   2.86210    13    96    74    14
 C    -2.25290   0.88310   3.46640    14    13    72    15
 C    -1.77170   2.20900   3.09970    15    16     7    14
 C    -2.50970   2.88250   2.13160    16    97    11    15
 C     4.40620   0.98330  -1.11140    17    19    31    18
 C     3.69480   2.01890  -1.81410    18    20    24    17
 C     4.54960   1.15220   0.27520    19    47     4    17
 C     3.18830   3.09320  -1.05970    20     5    21    18
 C     2.02800   3.74550  -1.34590    21    22    20    27
 C     1.31340   3.40470  -2.40850    22    21    23    28
 C     1.72830   2.38910  -3.19840    23    22    40    24
 C     2.90350   1.68810  -2.94280    24    25    23    18
 C     2.84100   0.39160  -3.35180    25    24    30    42
 C    -0.00200   4.23640  -0.11710    26    27    12    29
 C     1.37410   4.12830  -0.20000    27    10    21    26
 C    -0.04150   3.50670  -2.40240    28    22    83    29
 C    -0.76760   3.96320  -1.31160    29    28    91    26
 C     3.55540  -0.58350  -2.70370    30    33    25    31
 C     4.34080  -0.36930  -1.55610    31    30    17    32
 C     4.40270  -1.45500  -0.61330    32    35    46    31
 C     2.84420  -1.73090  -2.93180    33    34    36    30
 C     2.90540  -2.72250  -2.05670    34    33    35    37
 C     3.66480  -2.61070  -0.93790    35    34    48    32
 C     1.68880  -1.49680  -3.62160    36    42    33    39
 C     1.79660  -3.50220  -1.84420    37    34    51    38
 C     0.59740  -3.32900  -2.52780    38    37    56    39
 C     0.52640  -2.24220  -3.47670    39    36    44    38
 C     0.57410   1.84000  -3.72950    40    41    83    23
 C     0.48890   0.51640  -4.08600    41    40    42    43
 C     1.68010  -0.16630  -3.90850    42    36    41    25
 C    -0.76030  -0.14550  -4.00580    43    41    44    85
 C    -0.70410  -1.56910  -3.72830    44    45    39    43
 C    -1.81700  -2.13770  -3.15300    45    44    88    55
 C     4.50550  -1.20100   0.77650    46    47    50    32
 C     4.57610   0.11590   1.18030    47    19    46    61
 C     3.02860  -3.40240  -0.02240    48    49    35    51
 C     3.09110  -3.10910   1.26850    49    48    50    52
 C     3.82910  -2.04030   1.67630    50    49    59    46
 C     1.87200  -3.93190  -0.53730    51    48    37    54
 C     1.99690  -3.30740   2.06960    52    63    49    53
 C     0.79340  -3.83780   1.62560    53    52    65    54
 C     0.73920  -4.20150   0.22560    54    51    57    53
 C    -1.74350  -3.20720  -2.26870    55    79    56    45
 C    -0.54570  -3.77060  -1.84910    56    55    38    57
 C    -0.47700  -4.19900  -0.46760    57    58    54    56
 C    -1.61310  -3.99120   0.29700    58    80    57    64
 C     3.20720  -1.59380   2.82070    59    60    50    63
 C     3.27350  -0.28110   3.18090    60    59    62    61
 C     3.98540   0.55800   2.36530    61    60     3    47
 C     2.15510   0.22660   3.78260    62    60    68     1
 C     2.06460  -2.35600   3.05080    63    52    67    59
 C    -1.56100  -3.58560   1.62530    64    69    65    58
 C    -0.38200  -3.41780   2.31630    65    64    53    66
 C    -0.35050  -2.37190   3.32270    66    67    65    71
 C     0.92180  -1.85170   3.65080    67    68    63    66
 C     1.02690  -0.52480   4.02680    68    73    62    67
 C    -2.70540  -2.86600   1.87670    69    64    70    75
 C    -2.71350  -1.83840   2.80180    70    69    74    71
 C    -1.52450  -1.52370   3.50290    71    70    72    66
 C    -1.33600  -0.12640   3.85900    72    73    14    71
 C    -0.05320   0.30720   4.07170    73    68    72     6
 C    -3.65870  -0.86710   2.52230    74    13    70    77
 C    -3.49410  -2.85990   0.73400    75    80    76    69
 C    -4.37760  -1.84540   0.41810    76    75    77    82
 C    -4.49310  -0.87580   1.39650    77    95    76    74
 C    -3.63350  -2.08860  -1.84100    78    79    82    88
 C    -2.85390  -3.14260  -1.48880    79    80    78    55
 C    -2.78610  -3.53010  -0.20910    80    79    75    58
 C    -4.65060  -0.09430  -1.22100    81    98    82    86
 C    -4.45630  -1.43310  -0.94290    82    81    78    76
 C    -0.51890   2.53650  -3.26950    83    84    40    28
 C    -1.78240   1.99890  -3.20000    84    83    94    85
 C    -1.94550   0.61610  -3.61590    85    87    84    43
 C    -3.95730   0.56420  -2.24600    86    93    87    81
 C    -3.06410  -0.07770  -3.08930    87    88    86    85
 C    -2.97020  -1.43910  -2.87740    88    45    87    78
 C    -3.75090   2.79480   0.31090    89    92    90    97
 C    -2.66160   3.54070   0.00180    90    89    91    11
 C    -2.09740   3.55070  -1.27290    91    29    90    94
 C    -4.32140   1.98600  -0.60580    92    89    98    93
 C    -3.74680   1.86640  -1.83920    93    92    86    94
 C    -2.64470   2.60880  -2.23700    94    93    84    91
 C    -4.78020   0.41590   1.09250    95    77    96    98
 C    -4.15440   1.21870   1.99110    96    97    95    13
 C    -3.66540   2.40580   1.61340    97    96    16    89
 C    -4.86550   0.79950  -0.21420    98    92    81    95
