    98
C98-C1-217                                                                      
 C     1.88310  -3.24320   2.16220     1     7     2    61
 C     2.82970  -2.23920   2.32120     2     1    59     3
 C     2.47340  -1.15550   3.22530     3     4     2     9
 C     3.11580   0.10060   2.99210     4     5     6     3
 C     3.99550   0.23870   1.92710     5    60     4    18
 C     2.45970   1.27940   3.33390     6    12    16     4
 C     0.67470  -3.24160   2.81790     7     1    66     8
 C     0.25270  -2.22430   3.66630     8     7    14     9
 C     1.16440  -1.14130   3.87740     9     8    11     3
 C    -0.80790   0.26440   4.18470    10    13    11    25
 C     0.57060   0.12640   4.18340    11    12    10     9
 C     1.21750   1.29320   3.88290    12     6    11    27
 C    -1.64340  -0.78290   3.97610    13    10    14    98
 C    -1.16290  -2.04470   3.72140    14    13    15     8
 C    -1.99430  -2.80260   2.89030    15    65    95    14
 C     2.62130   2.46840   2.64160    16    17    20     6
 C     3.44900   2.55300   1.56140    17    18    16    19
 C     4.13290   1.43620   1.21990    18    17    33     5
 C     3.02890   3.35530   0.53710    19    17    22    31
 C     1.43160   3.16910   2.72120    20    27    21    16
 C     0.98720   3.99910   1.71770    21    20    22    29
 C     1.86150   4.06860   0.62640    22    24    19    21
 C     0.13040   4.39270  -0.84440    23    24    49    30
 C     1.41810   4.21100  -0.64410    24    23    22    36
 C    -1.46160   1.43170   3.75770    25    89    26    10
 C    -0.80090   2.55940   3.33450    26    25    27    28
 C     0.56670   2.46860   3.49410    27    20    26    12
 C    -1.36990   3.37240   2.30030    28    26    29    92
 C    -0.41780   4.10510   1.50240    29    30    21    28
 C    -0.79090   4.37100   0.19090    30    94    23    29
 C     3.22310   3.01010  -0.80000    31    36    32    19
 C     3.88190   1.87610  -1.17490    32    31    33    39
 C     4.39270   1.12950  -0.09680    33    34    18    32
 C     4.53540  -0.20680  -0.14180    34    35    33    60
 C     4.25540  -0.83390  -1.27230    35    34    51    40
 C     2.19220   3.50810  -1.53980    36    31    24    37
 C     1.67050   2.88380  -2.69220    37    36    47    38
 C     2.29460   1.65980  -3.11940    38    37    39    42
 C     3.44160   1.20080  -2.35080    39    40    32    38
 C     3.71230  -0.16150  -2.35910    40    44    35    39
 C     0.10360   0.98090  -4.09120    41    45    46    42
 C     1.48600   0.67710  -3.83820    42    41    43    38
 C     1.84870  -0.72400  -3.77530    43    44    55    42
 C     2.96920  -1.07570  -3.03560    44    40    52    43
 C    -0.79540  -0.11070  -4.18700    45    54    81    41
 C    -0.47710   2.20890  -3.65710    46    47    48    41
 C     0.29500   3.15000  -2.94640    47    46    37    49
 C    -1.86440   2.19410  -3.36270    48    80    88    46
 C    -0.41790   3.93540  -1.99570    49    23    84    47
 C     2.12330  -3.17590  -2.40260    50    52    53    56
 C     3.81300  -2.11190  -1.21880    51    35    52    58
 C     3.09550  -2.27610  -2.36030    52    50    51    44
 C     1.01990  -2.93780  -3.14650    53    50    55    69
 C    -0.43330  -1.41150  -4.02380    54    55    45    67
 C     0.86120  -1.75220  -3.85300    55    54    53    43
 C     1.82180  -3.92390  -1.31330    56    50    62    57
 C     2.50170  -3.74410  -0.10580    57    61    56    58
 C     3.53010  -2.79000  -0.01020    58    57    51    59
 C     3.71610  -2.05160   1.20810    59    60     2    58
 C     4.27020  -0.78990   1.07680    60     5    34    59
 C     1.72190  -3.97130   0.98770    61    57    64     1
 C     0.47370  -4.21950  -1.40960    62    63    69    56
 C    -0.30930  -4.44540  -0.31370    63    62    64    71
 C     0.39630  -4.35740   0.89510    64    66    61    63
 C    -1.50660  -3.72270   2.03570    65    66    15    72
 C    -0.20120  -3.96680   2.03470    66    65    64     7
 C    -1.50510  -2.11660  -3.44060    67    73    68    54
 C    -1.34560  -3.20070  -2.60630    68    67    69    70
 C    -0.03140  -3.61600  -2.53170    69    62    68    53
 C    -2.23900  -3.39240  -1.50990    70    68    71    75
 C    -1.68630  -4.06260  -0.35670    71    72    63    70
 C    -2.24980  -3.75700   0.87570    72    78    65    71
 C    -2.53260  -1.24650  -3.29220    73    67    81    74
 C    -3.48180  -1.35000  -2.26850    74    73    83    75
 C    -3.33670  -2.43860  -1.33670    75    77    74    70
 C    -4.34740  -0.94390   0.31190    76    82    96    77
 C    -3.83800  -2.20590  -0.01790    77    78    76    75
 C    -3.27180  -2.87220   1.05050    78    72    77    95
 C    -3.60080   1.07550  -2.47020    79    80    87    83
 C    -2.63580   1.07710  -3.43310    80    81    48    79
 C    -2.11450  -0.05520  -3.83190    81    80    45    73
 C    -4.43250   0.08100  -0.57210    82    76    83    85
 C    -4.04290  -0.09740  -1.87180    83    82    79    74
 C    -1.73740   3.79500  -1.69450    84    88    49    94
 C    -4.28930   1.29050   0.11580    85    90    86    82
 C    -3.76320   2.42510  -0.44030    86    85    87    93
 C    -3.47860   2.27520  -1.79540    87    88    79    86
 C    -2.45870   2.94470  -2.39110    88    84    87    48
 C    -2.67800   1.07390   3.26380    89    25    98    91
 C    -4.09160   1.00150   1.43100    90    85    96    91
 C    -3.29180   1.80340   2.25450    91    89    90    92
 C    -2.65450   2.96790   1.72570    92    91    93    28
 C    -2.95070   3.28980   0.35380    93    94    86    92
 C    -1.97850   3.99250  -0.34750    94    30    84    93
 C    -3.14350  -2.30300   2.31590    95    97    15    78
 C    -4.19680  -0.37730   1.57400    96    97    90    76
 C    -3.57420  -1.04090   2.58280    97    96    95    98
 C    -2.81460  -0.29020   3.42900    98    97    89    13
