    98
C98-Cs-108                                                                      
 C     4.89480  -0.00070  -0.50570     1     5    60    26
 C     2.60340  -2.99460  -1.92370     2     3    64     6
 C     3.68820  -2.25770  -1.55010     3     2     4    58
 C     3.84840  -1.08970  -2.28550     4     5     3     8
 C     4.42850   0.02030  -1.76030     5     1    18     4
 C     1.70020  -2.59050  -2.92320     6    14     7     2
 C     1.77900  -1.36700  -3.55500     7     8     6    10
 C     2.90740  -0.65760  -3.21890     8    19     7     4
 C    -0.66650  -1.41910  -3.72920     9    11    12    10
 C     0.57040  -0.70660  -3.93500    10     7     9    20
 C    -1.82540  -0.67820  -3.62480    11     9    97    23
 C    -0.72360  -2.69150  -3.08150    12    14     9    13
 C    -1.87910  -3.09010  -2.31250    13    15    96    12
 C     0.50740  -3.20140  -2.69310    14     6    67    12
 C    -1.61630  -3.85550  -1.16780    15    66    80    13
 C     2.60990   3.02140  -1.91020    16    17    32    22
 C     3.69150   2.28100  -1.53760    17    16    18    25
 C     3.84890   1.12700  -2.29070    18     5    17    19
 C     2.91060   0.70690  -3.22560    19     8    21    18
 C     0.57280   0.75200  -3.93280    20    21    24    10
 C     1.77910   1.41540  -3.55360    21    19    22    20
 C     1.69770   2.63340  -2.91020    22    38    21    16
 C    -1.82700   0.71070  -3.62060    23    24    90    11
 C    -0.66960   1.45450  -3.72280    24    23    37    20
 C     4.10000   2.29680  -0.17900    25    26    17    28
 C     4.75330   1.13430   0.27800    26    27     1    25
 C     4.64060   0.67970   1.55270    27    30    26    43
 C     3.27770   3.01570   0.77230    28    29    33    25
 C     3.17210   2.45870   2.04930    29    30    28    53
 C     3.83980   1.33310   2.41690    30    27    44    29
 C     0.67560   3.95520  -1.54500    31    34    32    38
 C     1.91330   3.78540  -1.01250    32    31    16    33
 C     2.15650   3.76620   0.36790    33    32    28    36
 C    -0.35930   4.20700  -0.77320    34    31    39    35
 C    -0.21170   4.19150   0.58060    35    54    34    36
 C     0.99030   3.91110   1.20460    36    35    52    33
 C    -0.72910   2.72350  -3.06920    37    38    24    40
 C     0.50150   3.23070  -2.68440    38    22    31    37
 C    -1.61520   3.84880  -1.13920    39    34    86    40
 C    -1.88630   3.10360  -2.29720    40    39    91    37
 C     3.84460  -1.35750   2.39710    41    43    42    61
 C     3.05290  -0.68550   3.27610    42    44    51    41
 C     4.64380  -0.69410   1.53390    43    41    60    27
 C     3.05230   0.65420   3.28460    44    42    45    30
 C     1.90280   1.32780   3.51940    45    44    53    49
 C    -1.71130   0.70960   3.63360    46    47    48    74
 C    -2.83430   1.32670   3.05780    47    83    57    46
 C    -0.48610   1.43980   3.63910    48    49    46    56
 C     0.69890   0.70340   3.86390    49    45    48    50
 C     0.69670  -0.74520   3.86160    50    51    75    49
 C     1.90370  -1.36180   3.51040    51    42    68    50
 C     0.86750   3.18790   2.42890    52    53    36    56
 C     1.98670   2.50190   2.79140    53    52    45    29
 C    -1.43660   3.87770   1.07440    54    35    55    86
 C    -1.57490   3.17270   2.25400    55    57    54    56
 C    -0.40910   2.72970   2.92620    56    55    52    48
 C    -2.75580   2.50090   2.34790    57    55    47    88
 C     4.10290  -2.30250  -0.19350    58    60     3    59
 C     3.28210  -3.02550   0.75190    59    61    63    58
 C     4.76540  -1.14490   0.25990    60    43     1    58
 C     3.16770  -2.48300   2.03360    61    41    68    59
 C     0.99340  -3.91990   1.17300    62    65    70    63
 C     2.16170  -3.76840   0.33280    63    64    59    62
 C     1.90990  -3.77910  -1.04540    64    67     2    63
 C    -0.20930  -4.19480   0.53870    65    73    66    62
 C    -0.35880  -4.22140  -0.81670    66    67    15    65
 C     0.67780  -3.96050  -1.57370    67    66    64    14
 C     1.98740  -2.53040   2.77560    68    70    51    61
 C    -0.40490  -2.75390   2.91190    69    72    70    75
 C     0.86620  -3.21340   2.40780    70    68    62    69
 C    -2.74780  -2.51980   2.32830    71    72    76    78
 C    -1.56410  -3.19300   2.22520    72    71    73    69
 C    -1.43420  -3.88680   1.03790    73    65    72    80
 C    -1.71210  -0.74370   3.63160    74    76    75    46
 C    -0.49100  -1.47430   3.63510    75    50    74    69
 C    -2.83660  -1.35040   3.05160    76    84    71    74
 C    -4.43860  -1.35530   1.50490    77    78    81    84
 C    -3.72260  -2.48720   1.32050    78    77    79    71
 C    -3.48750  -3.01900   0.05580    79    80    78    95
 C    -2.34600  -3.75100  -0.01780    80    79    15    73
 C    -4.93560  -0.69440   0.42660    81    77    98    85
 C    -4.43990   1.33590   1.51340    82    88    85    83
 C    -3.91390   0.65150   2.56700    83    84    82    47
 C    -3.91470  -0.67810   2.56340    84    83    76    77
 C    -4.93610   0.67990   0.43090    85    82    93    81
 C    -2.34490   3.74110   0.01110    86    87    39    54
 C    -3.48960   3.01080   0.07740    87    86    88    94
 C    -3.72710   2.47200   1.33880    88    82    87    57
 C    -3.67230   0.00990  -2.62230    89    92    97    90
 C    -2.96830   1.13340  -2.96200    90    89    23    91
 C    -3.05130   2.31940  -2.22890    91    90    40    94
 C    -4.51670  -0.00170  -1.58630    92    89    98    93
 C    -4.65510   1.13850  -0.82780    93    85    92    94
 C    -3.91360   2.30070  -1.07850    94    93    87    91
 C    -3.90500  -2.30230  -1.09840    95    98    79    96
 C    -3.04230  -2.29910  -2.24950    96    97    13    95
 C    -2.96520  -1.10820  -2.97140    97    89    11    96
 C    -4.65260  -1.14370  -0.83490    98    81    92    95
