    98
C98-C1-49                                                                       
 C     1.16320  -4.15860  -0.64770     1     2     6    58
 C     2.09460  -3.93230   0.31390     2     1     3     9
 C     3.27890  -3.34420  -0.11880     3     4     2    55
 C     4.05290  -2.60580   0.69620     4     3     5    19
 C     3.61470  -2.33160   1.94960     5    20     4    10
 C    -0.18690  -4.24000  -0.39450     6     1     7    60
 C    -0.73610  -4.03290   0.85740     7     6    15     8
 C     0.19940  -3.63400   1.88490     8     9     7    12
 C     1.59250  -3.63580   1.61410     9    10     8     2
 C     2.39410  -2.78770   2.36690    10     5    25     9
 C    -1.62440  -2.44130   2.88070    11    12    87    16
 C    -0.29080  -2.70170   2.87550    12    11    24     8
 C    -3.95650  -2.56330  -0.27000    13    96    14    66
 C    -2.84250  -3.39670  -0.35120    14    13    61    15
 C    -2.09830  -3.67410   0.86580    15    16     7    14
 C    -2.53500  -2.97920   1.98190    16    97    15    11
 C     4.94560  -0.44840   0.55130    17    19    32    18
 C     4.54910  -0.19190   1.83790    18    22    20    17
 C     4.66900  -1.62860  -0.03450    19    17     4    38
 C     3.83980  -1.12000   2.50810    20    18     5    26
 C     2.53440   2.65600   2.36370    21    23    94    34
 C     4.22100   1.10710   1.95460    22    18    33    23
 C     3.14380   1.50710   2.76880    23    21    22    28
 C     0.53540  -1.69020   3.46150    24    25    12    29
 C     1.87110  -1.81800   3.21150    25    24    26    10
 C     2.75080  -0.76430   3.26030    26    20    25    28
 C     0.91830   0.77080   3.68390    27    28    29    93
 C     2.32200   0.54980   3.43110    28    26    23    27
 C     0.02470  -0.36270   3.78500    29    88    27    24
 C     3.72820   1.82860  -1.87180    30    31    39    36
 C     4.39310   0.68630  -1.49950    31    30    32    37
 C     4.84500   0.70140  -0.16150    32    17    33    31
 C     4.50120   1.71250   0.73220    33    35    32    22
 C     2.89050   3.32500   1.20190    34    50    35    21
 C     3.83000   2.81210   0.32670    35    33    36    34
 C     3.49630   2.89360  -1.01090    36    52    35    30
 C     4.00320  -0.53900  -2.10850    37    38    31    41
 C     4.21010  -1.69270  -1.32830    38    55    19    37
 C     2.69470   1.81730  -2.79180    39    44    30    40
 C     2.21700   0.66690  -3.40080    40    39    48    41
 C     2.90630  -0.56680  -3.05760    41    42    37    40
 C     2.15270  -1.77620  -3.17380    42    43    54    41
 C     0.84280  -1.67920  -3.63040    43    56    49    42
 C     1.88020   2.89960  -2.53860    44    39    46    52
 C    -0.23640   3.71100  -2.05070    45    67    53    46
 C     0.54200   2.92840  -2.88920    46    44    45    47
 C    -0.05070   1.82250  -3.54670    47    46    48    69
 C     0.83000   0.70890  -3.80450    48    49    47    40
 C     0.19970  -0.50420  -3.92750    49    43    48    71
 C     1.79700   4.00880   0.78190    50    34    51    80
 C     1.54630   4.19410  -0.55540    51    53    52    50
 C     2.38420   3.55770  -1.42850    52    36    51    44
 C     0.24480   4.27920  -0.88770    53    51    83    45
 C     2.40880  -2.88650  -2.31830    54    55    58    42
 C     3.40530  -2.80050  -1.40550    55    54    38     3
 C    -0.14780  -2.56010  -3.29680    56    57    59    43
 C     0.09000  -3.53120  -2.42690    57    56    58    60
 C     1.32900  -3.67690  -1.93720    58    57     1    54
 C    -1.37270  -1.98410  -3.35720    59    56    71    62
 C    -0.87450  -3.89320  -1.54350    60    57    61     6
 C    -2.15890  -3.38980  -1.57830    61    60    14    62
 C    -2.45420  -2.38880  -2.57690    62    59    65    61
 C    -3.96030   0.89580  -2.15880    63    74    72    64
 C    -3.27950  -0.08750  -2.87660    64    63    70    65
 C    -3.46740  -1.44180  -2.38630    65    66    62    64
 C    -4.27770  -1.62930  -1.26120    66    75    65    13
 C    -1.55880   3.49710  -1.89090    67    45    68    77
 C    -2.23030   2.52080  -2.58490    68    67    72    69
 C    -1.49360   1.61970  -3.40280    69    68    70    47
 C    -2.06450   0.30730  -3.52290    70    71    64    69
 C    -1.16930  -0.69280  -3.78790    71    70    59    49
 C    -3.41080   2.14400  -1.98530    72    63    68    79
 C    -4.65110   1.68350  -0.20250    73    79    76    74
 C    -4.77830   0.64410  -1.08990    74    75    63    73
 C    -4.95660  -0.61180  -0.63710    75    74    95    66
 C    -4.62780   1.44620   1.13380    76    98    73    84
 C    -1.91180   3.88260  -0.59760    77    83    78    67
 C    -2.97600   3.37320   0.05810    78    77    79    85
 C    -3.81880   2.60490  -0.72580    79    73    78    72
 C     0.76610   3.80370   1.68790    80    82    94    50
 C    -1.54140   3.21780   2.08220    81    82    85    92
 C    -0.55720   3.93680   1.36710    82    80    83    81
 C    -0.77750   4.25340   0.03050    83    77    53    82
 C    -3.66280   2.06910   1.90890    84    85    90    76
 C    -2.81810   3.05150   1.44880    85    84    81    78
 C    -3.41350  -1.17050   2.83970    86    89    87    97
 C    -2.15630  -1.25170   3.34960    87    86    11    88
 C    -1.36560  -0.14260   3.68870    88    87    29    91
 C    -3.98520   0.02190   2.61770    89    86    98    90
 C    -3.23030   1.14920   2.84450    90    89    84    91
 C    -1.92990   1.14250   3.37510    91    90    92    88
 C    -1.06790   2.22770   3.06940    92    91    93    81
 C     0.33910   2.04250   3.29540    93    94    92    27
 C     1.20910   2.91500   2.63820    94    80    21    93
 C    -5.04060  -0.86220   0.70000    95    96    75    98
 C    -4.42720  -2.05130   0.91610    96    97    95    13
 C    -3.65280  -2.22230   2.00500    97    96    16    86
 C    -4.84530   0.18220   1.57260    98    76    89    95
