    98
C98-C1-238                                                                      
 C     3.11810  -0.56090  -3.02340     1     6     2    59
 C     3.43040   0.72630  -2.69510     2     1     3     9
 C     4.20770   0.82310  -1.54150     3     4    58     2
 C     4.09370   1.89630  -0.71060     4     5     3    29
 C     3.29930   2.88860  -1.04710     5     4    20    10
 C     1.97950  -0.85340  -3.70590     6     1    65     7
 C     1.00410   0.09920  -4.08460     7     6    17     8
 C     1.24100   1.46530  -3.71210     8     7     9    12
 C     2.49580   1.74810  -3.04140     9    10     2     8
 C     2.52070   2.84540  -2.19170    10    14     5     9
 C    -1.22770   1.77770  -3.64270    11    15    16    12
 C     0.08790   2.33020  -3.47430    12    11    13     8
 C     0.21180   3.44860  -2.56290    13    14    24    12
 C     1.45000   3.64000  -1.95940    14    10    21    13
 C    -2.27560   2.32920  -2.85750    15    23    96    11
 C    -1.42910   0.41930  -4.02560    16    17    18    11
 C    -0.31260  -0.41910  -4.23250    17    16    72     7
 C    -2.61070  -0.22450  -3.58340    18    95    77    16
 C     0.55540   4.47770   0.02880    19    21    22    25
 C     2.68930   3.59760  -0.06190    20    21     5    27
 C     1.60900   4.13650  -0.67690    21    19    20    14
 C    -0.68900   4.41640  -0.50970    22    19    41    24
 C    -2.10350   3.32460  -1.94290    23    24    15    39
 C    -0.89080   3.91890  -1.79490    24    23    22    13
 C     0.52860   4.20910   1.37180    25    34    19    26
 C     1.56010   3.52180   2.05440    26    27    25    35
 C     2.72380   3.23310   1.31320    27    28    26    20
 C     3.50890   2.11640   1.65960    28    27    29    31
 C     4.24260   1.52630   0.59930    29    30     4    28
 C     4.57820   0.21550   0.53060    30    33    29    58
 C     3.10210   1.24070   2.72030    31    32    28    36
 C     3.54110  -0.08820   2.60950    32    52    33    31
 C     4.25070  -0.58450   1.53010    33    30    43    32
 C    -0.79250   4.09780   1.64540    34    37    25    41
 C     1.14260   2.64720   3.11290    35    38    26    36
 C     1.88200   1.46210   3.45140    36    35    31    50
 C    -1.18370   3.32170   2.63670    37    34    91    38
 C    -0.24460   2.62180   3.36190    38    48    37    35
 C    -3.02170   3.14590  -0.89200    39    87    40    23
 C    -2.76380   3.51780   0.40040    40    39    41    90
 C    -1.57080   4.20820   0.52850    41    34    22    40
 C     2.22360  -3.20070   2.12890    42    44    45    54
 C     3.92560  -1.88820   1.28830    43    44    33    56
 C     3.12110  -2.23440   2.31270    44    42    43    52
 C     1.08160  -3.17730   2.83910    45    42    68    47
 C    -0.55130  -1.95730   3.87470    46    47    53    66
 C     0.78540  -2.13610   3.72390    47    46    45    51
 C    -0.91520   1.55080   3.86610    48    38    49    84
 C    -0.24900   0.40120   4.21600    49    48    53    50
 C     1.16330   0.31060   4.02230    50    49    51    36
 C     1.66850  -1.02100   3.82510    51    52    47    50
 C     2.84960  -1.14860   3.12870    52    32    51    44
 C    -1.06290  -0.71760   4.14470    53    46    49    86
 C     2.04300  -3.79090   0.90430    54    42    69    55
 C     2.80090  -3.42420  -0.20190    55    54    61    56
 C     3.82720  -2.43630  -0.00890    56    57    43    55
 C     4.16280  -1.55080  -1.05390    57    59    58    56
 C     4.55020  -0.25540  -0.75690    58    30     3    57
 C     3.47390  -1.66950  -2.23070    59    62    57     1
 C     0.73280  -3.97790  -1.48730    60    63    71    61
 C     2.11240  -3.53950  -1.43090    61    62    55    60
 C     2.52740  -2.63460  -2.42360    62    65    59    61
 C    -0.01850  -3.50960  -2.55660    63    83    64    60
 C     0.46340  -2.59980  -3.47080    64    65    72    63
 C     1.69120  -2.15730  -3.38340    65    64    62     6
 C    -1.50490  -2.69110   3.18750    66    78    46    67
 C    -1.20090  -3.62240   2.19630    67    68    66    81
 C     0.13830  -3.84650   2.06740    68    67    69    45
 C     0.71530  -4.18730   0.85940    69    68    54    71
 C    -1.46340  -4.06400  -0.22270    70    82    81    71
 C    -0.02590  -4.28290  -0.31220    71    69    60    70
 C    -0.51430  -1.79340  -3.93520    72    64    73    17
 C    -1.65130  -2.32420  -3.41620    73    77    72    83
 C    -3.77360  -2.42470  -0.02800    74    80    75    97
 C    -3.31270  -2.74260  -1.27860    75    74    76    82
 C    -3.54750  -1.75210  -2.22530    76    77    94    75
 C    -2.70090  -1.54700  -3.26460    77    73    76    18
 C    -2.59580  -1.89450   3.10830    78    79    66    86
 C    -3.43080  -2.01610   2.07850    79    78    80    92
 C    -3.17930  -2.93120   1.08390    80    74    79    81
 C    -2.03480  -3.74200   1.06010    81    80    67    70
 C    -2.15060  -3.56950  -1.38580    82    83    75    70
 C    -1.37230  -3.33460  -2.51470    83    63    73    82
 C    -2.23760   1.58240   3.38180    84    91    85    48
 C    -2.98890   0.45620   3.21000    85    84    86    93
 C    -2.36720  -0.68480   3.67320    86    78    85    53
 C    -3.77140   2.04980  -1.17590    87    39    96    88
 C    -4.29980   1.19000  -0.19300    88    87    98    89
 C    -3.99280   1.49550   1.18250    89    90    93    88
 C    -3.22610   2.68400   1.45360    90    91    40    89
 C    -2.38260   2.65990   2.57420    91    84    37    90
 C    -4.08210  -0.90300   1.59460    92    97    79    93
 C    -3.88460   0.39090   2.10130    93    92    85    89
 C    -4.09440  -0.52360  -1.91130    94    95    76    98
 C    -3.52950   0.37200  -2.77870    95    96    18    94
 C    -3.36930   1.62310  -2.41940    96    95    15    87
 C    -4.33950  -1.17190   0.28190    97    92    98    74
 C    -4.47200  -0.15700  -0.62730    98    97    94    88
