    98
C98-C1-14                                                                       
 C    -2.49390   2.49590  -2.54180     1     2     6    66
 C    -2.97470   1.28730  -2.95300     2     1     3     9
 C    -4.08410   0.81910  -2.23030     3     4    65     2
 C    -4.30000  -0.51120  -2.06420     4     5     3    29
 C    -3.45160  -1.38060  -2.63050     5     4    21    10
 C    -1.16870   2.84660  -2.70040     6    73     1     7
 C    -0.18520   2.03240  -3.27470     7     6    17     8
 C    -0.63510   0.72010  -3.68470     8     9     7    12
 C    -2.02770   0.39000  -3.51270     9    10     2     8
 C    -2.34720  -0.94930  -3.33200    10    14     5     9
 C     1.71050  -0.01310  -3.54170    11    15    12    16
 C     0.34800  -0.34140  -3.72500    12    11     8    13
 C    -0.06730  -1.71050  -3.44010    13    14    24    12
 C    -1.40490  -1.93420  -3.24980    14    10    13    22
 C     2.57140  -1.06100  -3.16650    15    98    23    11
 C     2.14330   1.31320  -3.18040    16    18    17    11
 C     1.18150   2.32690  -2.94100    17    16     7    75
 C     3.39560   1.42350  -2.54940    18    97    76    16
 C    -2.86340  -3.66610  -0.06090    19    30    20    27
 C    -3.72640  -2.90030  -0.81810    20    19    21    28
 C    -3.17830  -2.57490  -2.05040    21     5    22    20
 C    -1.90940  -2.94770  -2.45420    22    26    21    14
 C     2.11480  -2.30310  -2.76180    23    24    15    43
 C     0.80770  -2.66690  -2.82980    24    23    13    25
 C     0.32580  -3.64350  -1.87920    25    26    24    42
 C    -1.07010  -3.74770  -1.71290    26    22    27    25
 C    -1.61620  -4.09840  -0.49130    27    37    26    19
 C    -4.55130  -1.94940  -0.16170    28    29    32    20
 C    -4.85430  -0.76850  -0.83360    29     4    47    28
 C    -2.74230  -3.47830   1.28500    30    31    33    19
 C    -3.43820  -2.51210   1.88840    31    30    32    56
 C    -4.35540  -1.77260   1.21290    32    31    45    28
 C    -1.49280  -3.77110   1.67780    33    30    37    34
 C    -0.86450  -3.05990   2.69330    34    35    33    55
 C     0.47600  -3.09480   2.63160    35    34    58    41
 C     0.56480  -4.20170   0.47550    36    37    41    42
 C    -0.78990  -4.24580   0.58320    37    36    27    33
 C     4.24890  -2.28240   0.51970    38    93    39    87
 C     3.21270  -3.20130   0.48440    39    40    38    44
 C     2.43120  -3.21070   1.61140    40    41    39    89
 C     1.19000  -3.71150   1.61040    41    40    36    35
 C     1.21180  -3.98240  -0.77170    42    44    36    25
 C     3.00900  -2.78450  -1.82110    43    91    23    44
 C     2.55370  -3.52700  -0.74360    44    43    42    39
 C    -4.39830  -0.53860   1.82130    45    46    32    49
 C    -4.75370   0.59250   1.13770    46    45    48    47
 C    -4.99350   0.46370  -0.22520    47    29    65    46
 C    -4.14030   1.74130   1.56480    48    46    63    51
 C    -3.39680  -0.52740   2.81120    49    56    50    45
 C    -2.69700   0.60780   3.18980    50    51    49    61
 C    -3.16320   1.75040   2.56200    51    53    50    48
 C    -1.04270   2.81270   2.80910    52    53    54    62
 C    -2.34940   2.80920   2.35880    53    51    52    67
 C    -0.23400   3.64790   2.06140    54    85    52    68
 C    -1.49560  -1.93510   3.27460    55    56    34    60
 C    -2.80840  -1.74770   2.85460    56    49    31    55
 C     0.98610   1.52930   3.42670    57    84    81    62
 C     1.25480  -2.10040   3.15910    58    35    89    59
 C     0.72610  -0.89360   3.65490    59    58    81    60
 C    -0.70870  -0.79180   3.69650    60    59    61    55
 C    -1.32170   0.51600   3.63040    61    60    50    62
 C    -0.45970   1.66710   3.46370    62    52    61    57
 C    -3.84980   2.77110   0.69440    63    67    48    64
 C    -4.03460   2.62710  -0.67540    64    65    66    63
 C    -4.58330   1.45590  -1.10430    65    64     3    47
 C    -3.02140   3.16840  -1.44730    66    70    64     1
 C    -2.78360   3.46150   1.20690    67    69    63    53
 C    -0.63420   4.23460   0.87060    68    69    71    54
 C    -1.89100   4.11010   0.40730    69    68    67    70
 C    -2.00390   3.91780  -0.94660    70    66    69    73
 C     0.46760   4.27950   0.05430    71    77    68    72
 C     0.40080   3.98950  -1.30760    72    73    71    75
 C    -0.87840   3.78500  -1.73870    73    72     6    70
 C     2.70720   3.25790  -1.17600    74    76    75    79
 C     1.49040   3.34460  -1.92350    75    72    74    17
 C     3.67010   2.35550  -1.56750    76    74    18    95
 C     1.54740   3.94830   0.78720    77    71    79    85
 C     3.51730   2.82050   1.07250    78    94    79    83
 C     2.70260   3.54370   0.22590    79    77    78    74
 C     2.96780   0.02570   3.05390    80    82    88    81
 C     1.61160   0.23110   3.55260    81    59    57    80
 C     3.64330   1.09080   2.45430    82    83    90    80
 C     3.01170   2.28140   2.26590    83    82    84    78
 C     1.75090   2.52980   2.73810    84    85    83    57
 C     1.09670   3.49960   2.02840    85    54    84    77
 C     4.97970  -0.24810   1.01360    86    90    87    92
 C     4.36340  -1.34070   1.55460    87    86    88    38
 C     3.40470  -1.23690   2.56950    88    89    87    80
 C     2.50070  -2.23680   2.60360    89    88    58    40
 C     4.60750   0.96440   1.47320    90    86    94    82
 C     4.06460  -1.92370  -1.75420    91    93    43    98
 C     5.22220  -0.45700  -0.31950    92    93    86    96
 C     4.75680  -1.69580  -0.60710    93    92    91    38
 C     4.48560   2.01160   0.60650    94    78    95    90
 C     4.62570   1.80270  -0.72980    95    96    94    76
 C     4.98590   0.58200  -1.19090    96    95    97    92
 C     4.23190   0.35860  -2.30660    97    98    96    18
 C     3.79000  -0.87330  -2.58880    98    97    15    91
