    98
C98-Cs-97                                                                       
 C    -3.80150   2.28720  -1.38040     1    56     2     4
 C    -4.58600   1.13070  -1.17730     2    49     3     1
 C    -4.38830  -0.01060  -1.91710     3     6    26     2
 C    -2.82950   2.28820  -2.44160     4     5     8     1
 C    -2.74560   1.10580  -3.16670     5    11     6     4
 C    -3.48090  -0.01470  -2.88250     6     3    27     5
 C    -1.45830   3.79460  -1.23960     7    13     8    55
 C    -1.61150   3.04600  -2.38410     8     7     4     9
 C    -0.37800   2.65100  -3.03190     9    10     8    15
 C    -0.44660   1.42450  -3.74410    10    12    11     9
 C    -1.59900   0.68080  -3.75240    11     5    10    28
 C     0.67400   0.67550  -3.92340    12    18    10    29
 C    -0.22130   4.13660  -0.75150    13    62     7    14
 C     1.00790   3.83200  -1.34000    14    13    15    21
 C     0.94630   3.06110  -2.53580    15    14    17     9
 C     3.29480   2.28670  -2.00430    16    20    19    17
 C     2.11910   2.28580  -2.82840    17    18    16    15
 C     1.89810   1.09930  -3.53740    18    12    88    17
 C     4.11850   1.12280  -2.01420    19    94    87    16
 C     3.29580   3.02250  -0.79110    20    21    16    22
 C     2.14160   3.76190  -0.46590    21    20    23    14
 C     4.07020   2.48060   0.27260    22    93    98    20
 C     1.85110   3.83950   0.91640    23    61    96    21
 C    -3.80180  -2.30040  -1.36680    24    36    26    25
 C    -2.83040  -2.30960  -2.43120    25    27    32    24
 C    -4.58470  -1.14140  -1.16880    26     3    34    24
 C    -2.74650  -1.13310  -3.16670    27    28     6    25
 C    -1.59930  -0.72230  -3.75700    28    27    30    11
 C     0.67810  -0.72650  -3.92410    29    80    30    12
 C    -0.44990  -1.46850  -3.74360    30    29    28    31
 C    -0.37610  -2.69020  -3.02180    31    30    32    46
 C    -1.61320  -3.07150  -2.36370    32    33    25    31
 C    -1.46170  -3.81200  -1.21330    33    44    32    35
 C    -5.00410  -0.67870   0.05180    34    38    49    26
 C    -2.35890  -3.73470  -0.15410    35    36    40    33
 C    -3.50750  -3.00780  -0.18170    36    35    37    24
 C    -3.87680  -2.47560   1.06000    37    38    42    36
 C    -4.60080  -1.34210   1.16460    38    37    34    50
 C    -0.39030  -4.22800   0.61820    39    43    40    44
 C    -1.62950  -3.90930   1.00000    40    39    35    41
 C    -1.87750  -3.20760   2.18400    41    42    40    53
 C    -3.02330  -2.51030   2.16660    42    41    51    37
 C     0.61070  -3.98500   1.42760    43    39    85    54
 C    -0.22070  -4.15510  -0.73890    44    39    33    45
 C     1.01000  -3.85500  -1.32480    45    44    46    84
 C     0.95070  -3.09470  -2.52740    46    45    81    31
 C    -4.60970   1.35110   1.16220    47    57    49    48
 C    -4.16240   0.66850   2.26220    48    50    65    47
 C    -5.01060   0.69140   0.05100    49    47    34     2
 C    -4.15390  -0.66290   2.26660    50    48    51    38
 C    -3.12640  -1.33050   2.86460    51    50    42    52
 C    -2.01950  -0.70460   3.50210    52    51    63    64
 C    -0.78510  -2.72880   2.94900    53    54    41    63
 C     0.43260  -3.22710   2.56960    54    72    53    43
 C    -2.35610   3.72570  -0.17720    55    56    60     7
 C    -3.50740   3.00160  -0.19840    56    55    57     1
 C    -3.87970   2.47910   1.04760    57    47    58    56
 C    -3.02330   2.51730   2.14980    58    59    65    57
 C    -1.87790   3.21670   2.15610    59    58    60    67
 C    -1.62100   3.91300   0.97140    60    62    55    59
 C     0.61790   3.99840   1.40870    61    62    23    66
 C    -0.38340   4.23590   0.60330    62    61    60    13
 C    -0.78650  -1.42300   3.57970    63    52    53    68
 C    -2.01880   0.72660   3.49770    64    65    70    52
 C    -3.12880   1.34170   2.85440    65    48    58    64
 C     0.43230   3.24810   2.55440    66    79    67    61
 C    -0.78520   2.74450   2.93200    67    66    59    70
 C     0.48310  -0.71330   3.75770    68    73    69    63
 C     0.48160   0.73950   3.75410    69    78    68    70
 C    -0.78780   1.44370   3.57180    70    64    67    69
 C     2.49260  -3.11390   1.87110    71    74    85    72
 C     1.61130  -2.62970   2.81940    72    54    71    73
 C     1.73160  -1.37060   3.41700    73    72    76    68
 C     3.58120  -2.46940   1.57660    74    71    75    86
 C     3.88120  -1.31090   2.22700    75    74    95    76
 C     2.94340  -0.68820   3.10820    76    77    73    75
 C     2.94870   0.71630   3.10460    77    76    78    97
 C     1.72940   1.39650   3.40640    78    79    77    69
 C     1.61800   2.65480   2.80100    79    66    96    78
 C     1.90230  -1.14870  -3.54130    80    29    88    81
 C     2.12970  -2.32870  -2.82340    81    80    82    46
 C     3.30180  -2.31670  -1.99800    82    83    90    81
 C     3.29630  -3.03760  -0.77780    83    84    82    86
 C     2.14200  -3.77490  -0.44980    84    83    85    45
 C     1.84250  -3.83960   0.92850    85    43    71    84
 C     4.06060  -2.47870   0.28300    86    91    74    83
 C     3.74950  -0.01700  -2.68510    87    88    90    19
 C     2.66800  -0.02190  -3.41450    88    87    18    80
 C     4.87320  -0.69840  -0.96240    89    91    90    94
 C     4.12280  -1.15240  -2.01040    90    89    87    82
 C     4.82220  -1.35920   0.20780    91    89    86    95
 C     4.73050   0.67550   1.38920    92    95    97    93
 C     4.82920   1.35820   0.19190    93    94    22    92
 C     4.87540   0.67910  -0.96620    94    93    19    89
 C     4.73490  -0.65850   1.38970    95    92    75    91
 C     2.51390   3.13610   1.86540    96    98    23    79
 C     3.88670   1.33970   2.22550    97    98    92    77
 C     3.60050   2.49300   1.57020    98    96    97    22
