    98
C98-C1-63                                                                       
 C     1.63490   3.22420  -2.19940     1     2     6    60
 C     2.84790   2.67240  -2.00430     2     1     3     9
 C     3.42730   2.99550  -0.77230     3     4    57     2
 C     4.34990   2.21170  -0.20280     4     3     5    29
 C     4.78490   1.10670  -0.84430     5     4    20    10
 C     0.66140   2.64960  -2.99180     6    71     1     7
 C     0.79610   1.38580  -3.56000     7     6    17     8
 C     2.07750   0.73100  -3.35430     8    12     7     9
 C     3.12480   1.42690  -2.62350     9    10     2     8
 C     4.13920   0.69600  -2.00600    10    14     5     9
 C     0.88410  -1.38700  -3.60300    11    15    12    16
 C     2.11860  -0.71530  -3.36060    12    11     8    13
 C     3.16350  -1.41000  -2.62700    13    14    24    12
 C     4.16060  -0.67170  -2.00050    14    10    13    21
 C     0.75820  -2.67090  -3.02340    15    96    23    11
 C    -0.35830  -0.70920  -3.84690    16    18    17    11
 C    -0.45300   0.70920  -3.79670    17    16     7    74
 C    -1.53850  -1.42270  -3.56990    18    75    95    16
 C     4.38900  -2.17990  -0.20980    19    22    21    25
 C     5.16480   0.02800  -0.10980    20    21     5    27
 C     4.81520  -1.06280  -0.83830    21    19    20    14
 C     3.45900  -2.96930  -0.77320    22    19    24    36
 C     1.68220  -3.22300  -2.19380    23    24    15    34
 C     2.88560  -2.65960  -2.00420    24    23    22    13
 C     4.19220  -2.18560   1.14410    25    26    30    19
 C     4.42620  -1.06130   1.84140    26    25    27    31
 C     4.95950   0.03640   1.25550    27    26    28    20
 C     4.38560   1.11300   1.85260    28    29    27    44
 C     4.12780   2.21900   1.15400    29    28    43     4
 C     3.12150  -2.97760   1.41830    30    25    36    33
 C     3.48530  -0.67540   2.77310    31    26    32    44
 C     2.38500  -1.44380   3.11620    32    31    46    33
 C     2.19760  -2.70990   2.42230    33    30    38    32
 C     0.99590  -3.96590  -1.22570    34    88    35    23
 C     1.44430  -4.04560   0.06830    35    36    34    37
 C     2.70920  -3.56600   0.24390    36    35    30    22
 C     0.47570  -3.99970   1.10270    37    35    38    90
 C     0.91050  -3.27850   2.28280    38    39    33    37
 C    -0.07290  -2.66790   3.01140    39    93    38    45
 C    -0.79780   4.17440   0.69900    40    55    58    41
 C     0.51320   4.03100   1.10800    41    40    56    53
 C     2.08820   2.69180   2.42470    42    43    53    48
 C     3.04370   2.99030   1.42440    43    29    57    42
 C     3.44540   0.71020   2.78230    44    28    31    48
 C     0.10630  -1.44190   3.64810    45    49    46    39
 C     1.27900  -0.73080   3.63850    46    45    32    47
 C     1.17870   0.72930   3.63270    47    48    51    46
 C     2.28930   1.44500   3.11410    48    44    47    42
 C    -1.11350  -0.87060   3.77380    49    45    84    50
 C    -1.28060   0.50390   3.78670    50    68    49    51
 C    -0.13260   1.34400   3.63000    51    50    47    52
 C    -0.33800   2.62510   2.96420    52    54    53    51
 C     0.78210   3.24420   2.29670    53    42    52    41
 C    -1.67450   2.93260   2.51710    54    55    69    52
 C    -1.86500   3.70050   1.38160    55    40    54    66
 C     1.46430   4.08910   0.06190    56    57    60    41
 C     2.68800   3.59340   0.24430    57    56    43     3
 C    -1.19360   4.20510  -0.61980    58    59    61    40
 C    -0.28980   4.01190  -1.56290    59    58    60    71
 C     0.99930   3.99900  -1.24960    60    59     1    56
 C    -2.43700   3.73490  -0.76400    61    58    66    62
 C    -2.79990   2.95850  -1.87250    62    63    61    70
 C    -3.82040   2.08270  -1.62670    63    72    62    67
 C    -3.84090   1.92970   1.89750    64    65    80    69
 C    -3.92560   2.61960   0.71600    65    66    64    67
 C    -2.93250   3.51250   0.49860    66    65    61    55
 C    -4.41980   1.93160  -0.37610    67    83    65    63
 C    -2.54140   0.88790   3.36660    68    69    50    87
 C    -2.73340   2.06910   2.74170    69    68    54    64
 C    -1.77650   2.59510  -2.80920    70    71    74    62
 C    -0.54960   3.19080  -2.62710    71    59     6    70
 C    -3.89510   0.89030  -2.27860    72    63    76    73
 C    -2.89180   0.49110  -3.17470    73    75    72    74
 C    -1.75720   1.31660  -3.44550    74    70    73    17
 C    -2.74340  -0.86760  -3.24600    75    18    73    79
 C    -4.60090   0.00170  -1.46610    76    78    83    72
 C    -4.37160  -2.04390  -0.31950    77    81    78    97
 C    -4.36000  -1.34680  -1.51960    78    79    76    77
 C    -3.45430  -1.76890  -2.44650    79    78    94    75
 C    -4.31590   0.64170   2.00710    80    87    64    82
 C    -4.60030  -1.39880   0.87680    81    77    85    82
 C    -4.87410  -0.03930   0.93070    82    83    81    80
 C    -4.88980   0.64470  -0.27380    83    67    76    82
 C    -2.07100  -1.74860   3.30220    84    86    93    49
 C    -3.83040  -2.04380   1.82320    85    86    81    91
 C    -3.29040  -1.33640   2.87020    86    84    87    85
 C    -3.52780   0.00380   2.93860    87    86    80    68
 C    -0.31300  -3.96930  -1.53770    88    34    96    89
 C    -1.34480  -4.08860  -0.61450    89    88    98    90
 C    -0.93990  -4.06950   0.76930    90    92    89    37
 C    -3.13990  -3.08830   1.22600    91    97    85    92
 C    -1.88990  -3.52450   1.66910    92    93    91    90
 C    -1.40420  -2.82520   2.75880    93    39    84    92
 C    -2.65550  -2.86030  -2.24100    94    95    79    98
 C    -1.55240  -2.66220  -2.99620    95    96    94    18
 C    -0.42620  -3.23800  -2.69100    96    95    15    88
 C    -3.49020  -3.10240  -0.09760    97    91    98    77
 C    -2.60100  -3.56530  -1.03120    98    97    94    89
