    98
C98-C1-168                                                                      
 C     2.69350  -2.42000  -2.50130     1     2     6    64
 C     1.74060  -3.36650  -2.24920     2     1     3     9
 C     1.88690  -4.00400  -1.00910     3     4    63     2
 C     0.82270  -4.44730  -0.31770     4     5     3    30
 C    -0.37800  -4.41120  -0.86720     5     4    20    10
 C     2.39370  -1.27940  -3.21360     6     1    15     7
 C     1.12920  -0.99990  -3.71310     7     6    17     8
 C     0.09350  -1.99990  -3.52270     8     9    12     7
 C     0.44390  -3.18420  -2.78470     9    10     2     8
 C    -0.59030  -3.79980  -2.08970    10    23     5     9
 C    -1.52830  -0.25190  -3.75110    11    12    40    18
 C    -1.28990  -1.58990  -3.52010    12    11    22     8
 C     3.63630   1.80860  -1.92090    13    93    66    14
 C     2.98460   1.03980  -2.88320    14    15    13    16
 C     3.29140  -0.30760  -2.81940    15     6    14    68
 C     1.72480   1.45010  -3.40080    16    14    17    96
 C     0.82790   0.39550  -3.84610    17    18     7    16
 C    -0.51340   0.69600  -3.89780    18    98    17    11
 C    -3.43290  -3.07250  -0.35880    19    21    26    24
 C    -1.46750  -4.29950  -0.07710    20     5    21    28
 C    -2.42340  -3.74720  -0.88350    21    19    20    23
 C    -2.32440  -2.26020  -2.78950    22    23    12    25
 C    -1.88360  -3.37390  -2.09190    23    10    21    22
 C    -3.98660  -2.02220  -1.03560    24    19    37    25
 C    -3.46890  -1.55620  -2.25800    25    41    24    22
 C    -3.49750  -2.89350   0.99030    26    19    32    27
 C    -2.46180  -3.33140   1.82570    27    31    28    26
 C    -1.39100  -4.06840   1.31350    28    27    20    29
 C    -0.07420  -3.94300   1.86390    29    30    28    44
 C     0.99380  -4.21880   1.02640    30    47     4    29
 C    -2.17920  -2.45060   2.84870    31    35    27    43
 C    -4.19650  -1.72740   1.17080    32    34    26    37
 C    -4.09810   0.42680   2.05020    33    34    38    55
 C    -3.92140  -0.91000   2.23670    34    33    35    32
 C    -2.88080  -1.28500   3.04600    35    34    31    57
 C    -4.69940   0.15190  -0.28480    36    37    38    39
 C    -4.53360  -1.19430  -0.07780    37    36    24    32
 C    -4.53420   0.95470   0.85460    38    85    33    36
 C    -4.29950   0.67240  -1.54200    39    42    36    41
 C    -2.66400   0.40220  -3.30020    40    88    11    41
 C    -3.65010  -0.18290  -2.50180    41    40    25    39
 C    -3.89630   2.01690  -1.53030    42    92    84    39
 C    -0.89740  -2.26500   3.32930    43    31    49    44
 C     0.20450  -2.97880   2.89150    44    43    29    45
 C     1.49000  -2.34390   3.04360    45    46    44    51
 C     2.53640  -2.78230   2.16860    46    48    47    45
 C     2.23950  -3.69140   1.16360    47    30    46    63
 C     3.59390  -1.93990   1.86400    48    54    46    61
 C    -0.81400  -0.97000   3.81010    49    50    57    43
 C     0.36410  -0.26930   3.90960    50    49    51    59
 C     1.57660  -0.98240   3.57530    51    53    50    45
 C     2.58140   1.18050   3.19460    52    60    53    69
 C     2.71010  -0.19770   3.23840    53    52    54    51
 C     3.69720  -0.69110   2.39860    54    48    53    71
 C    -3.25540   1.36250   2.65160    55    77    56    33
 C    -2.17150   0.99950   3.43650    56    57    55    58
 C    -2.03330  -0.36290   3.62170    57    49    35    56
 C    -1.02350   1.82100   3.48330    58    56    59    79
 C     0.23640   1.16800   3.79280    59    60    50    58
 C     1.38910   1.82650   3.43260    60    82    59    52
 C     4.23860  -1.92170   0.62750    61    62    65    48
 C     3.80530  -2.72730  -0.39090    62    63    61    64
 C     2.84410  -3.63020  -0.09570    63    62     3    47
 C     3.73620  -2.13440  -1.64150    64    68     1    62
 C     4.70590  -0.64960   0.40880    65    61    71    67
 C     4.43910   1.26200  -0.92170    66    67    72    13
 C     4.68400  -0.08250  -0.85970    67    66    68    65
 C     4.13650  -0.84730  -1.85520    68    64    67    15
 C     3.33290   1.97750   2.33990    69    73    70    52
 C     4.24640   1.45700   1.45570    70    71    69    72
 C     4.43340   0.10620   1.52830    71    70    65    54
 C     4.28120   2.04060   0.19970    72    76    66    70
 C     2.57710   3.07980   2.03830    73    69    75    82
 C     1.50550   4.23390   0.34160    74    75    80    94
 C     2.65430   3.67670   0.79940    75    74    76    73
 C     3.47760   3.09650  -0.12730    76    72    75    93
 C    -3.24160   2.48170   1.87580    77    55    85    78
 C    -2.15490   3.34740   1.83980    78    77    87    79
 C    -1.02860   3.05670   2.69370    79    81    78    58
 C     0.34450   4.26780   1.09660    80    86    74    81
 C     0.22100   3.60490   2.32010    81    82    80    79
 C     1.38670   3.01080   2.73600    82    81    60    73
 C    -2.76300   3.66260  -0.49150    83    84    91    87
 C    -3.79010   2.77020  -0.38290    84    85    83    42
 C    -4.05950   2.22200   0.79480    85    84    38    77
 C    -0.69940   4.39630   0.23930    86    80    87    89
 C    -1.95840   4.00980   0.58900    87    86    83    78
 C    -2.32570   1.72200  -3.22350    88    92    40    98
 C    -0.19770   4.31540  -1.06180    89    94    90    86
 C    -0.92030   3.78090  -2.09080    90    89    91    97
 C    -2.24390   3.52490  -1.77160    91    92    90    83
 C    -2.94640   2.52310  -2.35680    92    88    91    42
 C     3.07370   2.96020  -1.45100    93    13    95    76
 C     1.14780   4.17780  -0.99830    94    89    74    95
 C     1.87930   3.44490  -1.93540    95    93    94    96
 C     1.16870   2.72530  -2.94730    96    97    95    16
 C    -0.23730   2.94570  -3.02450    97    98    96    90
 C    -1.01370   1.92090  -3.54860    98    88    18    97
