    98
C98-Cs-120                                                                      
 C    -2.97220   3.02900   1.52420     1     2     6    66
 C    -2.76160   2.26900   2.64230     2     1     3    10
 C    -3.53620   1.11050   2.66200     3     4    63     2
 C    -3.06650  -0.00850   3.26870     4     5    14     3
 C    -1.86790  -0.00900   3.84920     5     4    11    15
 C    -1.95640   3.78700   0.99890     6     1     8    68
 C     0.29630   4.13690   0.67780     7    31     8    67
 C    -0.70520   3.85300   1.58220     8     7     6     9
 C    -0.39150   3.08600   2.74370     9     8    10    33
 C    -1.46610   2.28650   3.24660    10    11     2     9
 C    -1.08080   1.10450   3.86780    11     5    35    10
 C    -2.97510  -3.02740   1.49900    12    13    19    38
 C    -2.76610  -2.28050   2.62400    13    12    14    16
 C    -3.53550  -1.12110   2.65180    14     4    37    13
 C    -1.08910  -1.13350   3.85360    15     5    21    16
 C    -1.47090  -2.31370   3.22590    16    15    17    13
 C    -0.40270  -3.10810   2.71130    17    18    16    23
 C    -0.71210  -3.86780   1.54450    18    20    19    17
 C    -1.96480  -3.78730   0.96870    19    12    18    42
 C     0.28750  -4.14700   0.64140    20    26    18    44
 C     0.20670  -0.71050   3.98850    21    15    22    35
 C     1.28480  -1.46820   3.59600    22    21    29    23
 C     0.98160  -2.71710   2.92790    23    25    22    17
 C     3.17230  -2.51570   1.88210    24    25    30    88
 C     1.97390  -3.17460   2.01840    25    24    26    23
 C     1.58100  -3.84180   0.87170    26    20    25    90
 C     3.45270   1.33630   2.59400    27    93    36    28
 C     2.48850   0.71300   3.39160    28    27    34    29
 C     2.48890  -0.74440   3.37950    29    30    22    28
 C     3.45270  -1.35740   2.58000    30    94    24    29
 C     1.59020   3.83140   0.91480    31     7    32    96
 C     1.98500   3.15720   2.05800    32    36    31    33
 C     0.99120   2.69120   2.96150    33    32    34     9
 C     1.29040   1.43600   3.61910    34    35    28    33
 C     0.21140   0.68660   4.00450    35    11    34    21
 C     3.18430   2.50290   1.90940    36    32    27    98
 C    -4.36430  -0.68540   1.62300    37    39    63    14
 C    -3.81310  -2.62140   0.46270    38    40    12    39
 C    -4.51530  -1.41120   0.45820    39    37    38    46
 C    -3.28740  -3.15670  -0.67360    40    41    42    38
 C    -3.40240  -2.50680  -1.83140    41    40    45    56
 C    -2.16060  -3.85790  -0.40330    42    40    43    19
 C    -1.11240  -3.94820  -1.30670    43    44    42    55
 C     0.10090  -4.16100  -0.73810    44    43    57    20
 C    -4.08770  -1.32950  -1.88480    45    41    48    46
 C    -4.67010  -0.70000  -0.76310    46    45    39    47
 C    -4.66720   0.72920  -0.75130    47    50    62    46
 C    -3.47690  -0.64170  -2.89280    48    49    45    51
 C    -3.46730   0.68000  -2.88660    49    48    50    52
 C    -4.07160   1.36230  -1.86900    50    64    49    47
 C    -2.39080  -1.32670  -3.38660    51    56    48    54
 C    -2.38510   1.36350  -3.37820    52    70    49    53
 C    -1.25290   0.73750  -3.88730    53    52    72    54
 C    -1.25310  -0.70740  -3.89260    54    51    60    53
 C    -1.15420  -3.22000  -2.52070    55    56    43    59
 C    -2.34190  -2.52460  -2.72520    56    51    41    55
 C     1.27370  -3.80600  -1.33510    57    44    90    58
 C     1.32660  -3.07100  -2.52320    58    57    84    59
 C     0.05040  -2.70680  -3.10330    59    55    58    60
 C    -0.04480  -1.43820  -3.79660    60    61    54    59
 C     1.10570  -0.68620  -3.86310    61    85    60    71
 C    -4.52020   1.43320   0.47550    62    63    66    47
 C    -4.37190   0.69550   1.63040    63    62    37     3
 C    -3.39340   2.54510  -1.80900    64    65    50    70
 C    -3.28680   3.17930  -0.64080    65    64    68    66
 C    -3.81790   2.63970   0.48650    66    65     1    62
 C     0.10420   4.16710  -0.70080    67    69    76     7
 C    -2.15370   3.87200  -0.37360    68    65    69     6
 C    -1.10580   3.96420  -1.27700    69    67    68    74
 C    -2.33680   2.55750  -2.70850    70    52    64    74
 C     1.10560   0.71730  -3.85290    71    78    72    61
 C    -0.04440   1.47330  -3.78130    72    71    53    73
 C     0.05360   2.73510  -3.07710    73    74    75    72
 C    -1.14860   3.24630  -2.49640    74    70    69    73
 C     1.32770   3.08470  -2.48660    75    76    79    73
 C     1.28120   3.80620  -1.29020    76    67    96    75
 C     3.06660   0.00770  -3.16100    77    80    85    78
 C     2.31920   1.13320  -3.36950    78    77    71    79
 C     2.50680   2.31000  -2.64580    79    78    75    82
 C     4.07840   0.00320  -2.30010    80    77    86    81
 C     4.36510   1.13960  -1.58530    81    80    95    82
 C     3.57050   2.29500  -1.68000    82    81    97    79
 C     3.56460  -2.28440  -1.70810    83    86    89    84
 C     2.50210  -2.29170  -2.67630    84    85    58    83
 C     2.31790  -1.10920  -3.38680    85    77    61    84
 C     4.36200  -1.13060  -1.58690    86    91    80    83
 C     4.66630  -1.35750   0.72550    87    91    88    94
 C     3.90330  -2.47940   0.68730    88    87    89    24
 C     3.38050  -2.99480  -0.49740    89    90    88    83
 C     2.23380  -3.70550  -0.35160    90    89    57    26
 C     4.92070  -0.68160  -0.42280    91    87    86    95
 C     4.67590   1.34970   0.74180    92    95    98    93
 C     4.40540   0.65970   1.88650    93    94    92    27
 C     4.40390  -0.68100   1.87930    94    93    30    87
 C     4.92720   0.69100  -0.41570    95    92    91    81
 C     2.24340   3.70030  -0.31240    96    97    76    31
 C     3.39550   2.99390  -0.46290    97    96    98    82
 C     3.91710   2.47490   0.71710    98    92    97    36
