    98
C98-Cs-99                                                                       
 C     4.79120   0.00270   1.05900     1     5    62    27
 C     2.33840  -2.98810   2.15600     2     3    66     7
 C     3.45870  -2.25580   1.91980     3     2     4    60
 C     3.49420  -1.09140   2.67400     4     5     3     9
 C     4.14460   0.01470   2.22830     5     1    17     4
 C     0.17070  -3.21280   2.66130     6     7    69    10
 C     1.30720  -2.58520   3.02550     7     6     8     2
 C     1.26850  -1.35890   3.65370     8     9     7    19
 C     2.43280  -0.65660   3.46450     9    18     8     4
 C    -1.10100  -2.72550   2.91980    10     6    13    11
 C    -1.21040  -1.42340   3.54990    11    24    19    10
 C    -3.24460  -2.51560   1.88230    12    13    23    98
 C    -2.09730  -3.20910   2.03200    13    12    14    10
 C    -1.71460  -3.92170   0.89140    14    68    96    13
 C     2.34080   3.00840   2.12950    15    16    33    22
 C     3.45910   2.27080   1.90090    16    15    17    26
 C     3.49580   1.11810   2.67000    17     5    16    18
 C     2.43360   0.70040   3.46590    18     9    21    17
 C     0.00420  -0.70600   3.87720    19     8    11    20
 C     0.00150   0.75060   3.87270    20    21    25    19
 C     1.26740   1.40300   3.64510    21    18    22    20
 C     1.30640   2.62270   3.00380    22    43    21    15
 C    -3.43730  -1.32630   2.55660    23    93    12    24
 C    -2.42020  -0.70010   3.32740    24    23    11    41
 C    -1.21430   1.46440   3.53820    25    41    20    42
 C     4.05250   2.29710   0.61490    26    27    16    29
 C     4.76470   1.13290   0.25630    27    28     1    26
 C     4.83620   0.68270  -1.02230    28    31    27    47
 C     3.36910   3.02270  -0.43260    29    30    34    26
 C     3.44590   2.46630  -1.71290    30    31    29    54
 C     4.16900   1.34270  -1.99120    31    28    48    30
 C     0.49510   3.97490   1.52980    32    35    33    43
 C     1.78150   3.78720   1.15500    33    32    15    34
 C     2.20260   3.76910  -0.18190    34    33    29    37
 C    -0.42720   4.23950   0.62430    35    32    38    36
 C    -0.12550   4.18370  -0.70290    36    35    55    37
 C     1.14760   3.90310  -1.16050    37    36    53    34
 C    -1.70830   3.92470   0.86300    38    35    90    40
 C    -3.24300   2.53290   1.85680    39    40    44    88
 C    -2.09710   3.22730   2.01150    40    39    38    42
 C    -2.42380   0.73870   3.32050    41    44    25    24
 C    -1.09900   2.76330   2.90140    42    43    40    25
 C     0.16990   3.24420   2.64570    43    22    32    42
 C    -3.44010   1.35160   2.54300    44    94    39    41
 C     4.15890  -1.36650  -1.96320    45    47    46    63
 C     3.52520  -0.68130  -2.95130    46    48    50    45
 C     4.83130  -0.69340  -1.00020    47    45    62    28
 C     3.52340   0.66380  -2.96670    48    46    31    49
 C     2.41480   1.33760  -3.35280    49    48    52    54
 C     2.41190  -1.36150  -3.33020    50    46    70    51
 C     1.27320  -0.73640  -3.82070    51    50    72    52
 C     1.27230   0.71550  -3.83260    52    49    58    51
 C     1.18780   3.18020  -2.38020    53    54    37    57
 C     2.36660   2.50640  -2.60660    54    53    49    30
 C    -1.29680   3.83030  -1.32480    55    36    56    90
 C    -1.31720   3.06740  -2.48240    56    55    84    57
 C    -0.02370   2.69620  -3.01160    57    56    58    53
 C     0.07100   1.43680  -3.72070    58    59    52    57
 C    -1.07880   0.68740  -3.80940    59    85    58    71
 C     4.05760  -2.29930   0.63740    60    62     3    61
 C     3.36890  -3.03010  -0.40260    61    63    65    60
 C     4.77190  -1.14110   0.27850    62    47     1    60
 C     3.43420  -2.48840  -1.68900    63    45    70    61
 C     1.14420  -3.90450  -1.11920    64    67    74    65
 C     2.20090  -3.76760  -0.13650    65    66    61    64
 C     1.77290  -3.77980   1.19730    66    69     2    65
 C    -0.13190  -4.17830  -0.65350    67    68    76    64
 C    -0.43330  -4.24500   0.67470    68    69    14    67
 C     0.49140  -3.97650   1.56580    69    68    66     6
 C     2.36100  -2.52800  -2.58100    70    74    50    63
 C    -1.07780  -0.71580  -3.79780    71    78    72    59
 C     0.07300  -1.46610  -3.70070    72    71    51    73
 C    -0.02510  -2.71850  -2.98170    73    74    75    72
 C     1.18110  -3.19790  -2.34920    74    70    64    73
 C    -1.31700  -3.08070  -2.44650    75    76    79    73
 C    -1.30490  -3.83250  -1.28190    76    67    75    96
 C    -3.05320  -0.00790  -3.15320    77    80    85    78
 C    -2.29930  -1.13200  -3.34340    78    77    71    79
 C    -2.50240  -2.31300  -2.63460    79    78    75    82
 C    -4.08320  -0.01500  -2.31480    80    77    81    86
 C    -4.38680  -1.14870  -1.60950    81    80    95    82
 C    -3.59670  -2.30860  -1.69780    82    81    97    79
 C    -3.58450   2.28720  -1.72440    83    86    89    84
 C    -2.49560   2.29100  -2.66410    84    85    56    83
 C    -2.29890   1.10770  -3.36130    85    77    59    84
 C    -4.37420   1.12600  -1.61050    86    91    80    83
 C    -4.69270   1.35400   0.69590    87    88    91    94
 C    -3.96500   2.49180   0.65970    88    87    39    89
 C    -3.43800   3.01880  -0.52540    89    90    88    83
 C    -2.30770   3.75310  -0.37190    90    89    38    55
 C    -4.94590   0.67490  -0.45060    91    87    86    95
 C    -4.70460  -1.35390   0.71440    92    98    95    93
 C    -4.39780  -0.65840   1.85230    93    94    23    92
 C    -4.39540   0.67370   1.84470    94    93    44    87
 C    -4.95660  -0.69560  -0.44320    95    92    91    81
 C    -2.32100  -3.75850  -0.33790    96    97    14    76
 C    -3.45640  -3.02840  -0.49240    97    96    98    82
 C    -3.97720  -2.49220   0.69000    98    92    97    12
