    98
C98-C2-61                                                                       
 C     3.73990   1.71980  -1.74980     1     2    64     4
 C     4.53750   0.77400  -1.10620     2     3    60     1
 C     4.63570  -0.53080  -1.54870     3     6    18     2
 C     2.98710   1.27200  -2.91160     4     5     9     1
 C     3.04050  -0.08520  -3.22120     5     6     4    28
 C     3.84440  -0.94530  -2.55800     6     3     5    19
 C     0.19410   3.49740  -2.49090     7    10    15     8
 C     1.47650   3.04230  -2.58730     8     7    65     9
 C     1.80660   1.90470  -3.31440     9     8     4    12
 C    -0.80560   2.87190  -3.09330    10     7    11    96
 C    -0.55260   1.73490  -3.79080    11    29    10    12
 C     0.70810   1.18160  -3.91150    12    11    27     9
 C    -1.19160   4.11440   0.63980    13    14    92    68
 C    -1.28020   4.09960  -0.71650    14    13    15    95
 C    -0.01760   4.12810  -1.32170    15     7    70    14
 C     4.21890  -2.56290  -0.43350    16    36    17    18
 C     3.38240  -2.93260  -1.43540    17    19    16    26
 C     4.86570  -1.34890  -0.48660    18    35     3    16
 C     3.21330  -2.15160  -2.50680    19    17    20     6
 C     2.01670  -2.06740  -3.13040    20    19    28    24
 C    -1.50520  -2.85390  -2.51470    21    22    23    44
 C    -2.71960  -2.16420  -2.67020    22    86    32    21
 C    -0.36400  -2.33330  -3.18340    23    24    21    31
 C     0.89180  -2.80960  -2.75230    24    20    23    25
 C     1.03510  -3.58670  -1.53930    25    26    45    24
 C     2.28000  -3.57540  -0.92200    26    17    37    25
 C     0.73930  -0.23690  -3.99620    27    28    12    31
 C     1.92990  -0.79940  -3.66970    28    27    20     5
 C    -1.70710   1.02210  -3.75480    29    11    30    89
 C    -1.69230  -0.35580  -3.81070    30    32    29    31
 C    -0.45320  -1.03240  -3.86120    31    30    27    23
 C    -2.79570  -0.92620  -3.25820    32    30    22    91
 C     4.42460  -1.03880   1.77310    33    49    35    34
 C     3.75920  -2.24080   1.81480    34    36    43    33
 C     4.93990  -0.56340   0.61450    35    33    18    60
 C     3.63450  -2.98520   0.71050    36    34    16    37
 C     2.43870  -3.60320   0.45140    37    36    26    41
 C    -1.04230  -3.57230   1.56700    38    39    40    56
 C    -2.28890  -3.56370   0.94760    39    82    46    38
 C     0.07820  -3.85540   0.74850    40    38    41    45
 C     1.35160  -3.60630   1.31880    41    37    40    42
 C     1.50220  -2.84090   2.54000    42    43    57    41
 C     2.71620  -2.15420   2.68790    43    34    50    42
 C    -1.36490  -3.61160  -1.28780    44    46    45    21
 C    -0.09090  -3.86030  -0.72600    45    44    25    40
 C    -2.45630  -3.59550  -0.42560    46    87    39    44
 C     2.66020   1.74300   3.01290    47    48    61    53
 C     3.71020   1.16150   2.37410    48    47    49    59
 C     3.80800  -0.20550   2.63250    49    33    48    50
 C     2.78670  -0.91530   3.27260    50    52    43    49
 C     0.44730  -1.01290   3.86200    51    52    55    57
 C     1.68640  -0.33140   3.81600    52    50    53    51
 C     1.69710   1.04260   3.75190    53    72    52    47
 C    -1.93060  -0.77060   3.65470    54    55    58    76
 C    -0.73800  -0.20150   3.98560    55    54    71    51
 C    -0.89860  -2.78960   2.77610    56    58    57    38
 C     0.35690  -2.31950   3.19910    57    56    42    51
 C    -2.02910  -2.04710   3.13550    58    83    54    56
 C     4.12530   1.68950   1.10840    59    60    48    63
 C     4.73620   0.76100   0.26690    60    35     2    59
 C     2.06940   2.86840   2.52870    61    47    66    62
 C     2.37490   3.43400   1.28570    62    61    69    63
 C     3.40000   2.77710   0.51130    63    59    62    64
 C     3.23880   2.78000  -0.93410    64    65     1    63
 C     2.13290   3.44610  -1.43960    65    70     8    64
 C     0.80920   2.89140   3.07120    66    67    72    61
 C    -0.18850   3.51790   2.46660    67    66    68    73
 C     0.03130   4.14100   1.29630    68    67    13    69
 C     1.28680   4.10870   0.68240    69    70    68    62
 C     1.20260   4.11490  -0.66900    70    69    65    15
 C    -0.71210   1.21900   3.89900    71    72    55    74
 C     0.55200   1.76270   3.77970    72    53    66    71
 C    -1.47160   3.06610   2.56530    73    67    92    74
 C    -1.81040   1.93440   3.29800    74    73    77    71
 C    -3.85190  -0.91640   2.56390    75    78    76    83
 C    -3.04500  -0.05050   3.21640    76    75    77    54
 C    -2.99030   1.30640   2.89880    77    76    74    80
 C    -4.63490  -0.50560   1.54640    78    75    84    79
 C    -4.53990   0.79370   1.10040    79    78    97    80
 C    -3.74220   1.74700   1.73270    80    79    93    77
 C    -4.22850  -2.55970   0.45190    81    87    82    84
 C    -3.39310  -2.92120   1.45640    82    83    81    39
 C    -3.22970  -2.13130   2.51880    83    82    58    75
 C    -4.86600  -1.34050   0.49700    84    88    78    81
 C    -4.42980  -1.04340  -1.76970    85    91    88    86
 C    -3.76800  -2.24810  -1.80330    86    87    22    85
 C    -3.65530  -2.98550  -0.69630    87    86    81    46
 C    -4.94130  -0.56120  -0.61050    88    85    84    97
 C    -2.67060   1.73790  -3.03120    89    90    96    29
 C    -3.71850   1.15920  -2.38930    90    89    91    98
 C    -3.82260  -0.20790  -2.63450    91    85    90    32
 C    -2.13110   3.45940   1.41560    92    73    13    93
 C    -3.23940   2.79700   0.90640    93    92    80    94
 C    -3.40010   2.78160  -0.53900    94    98    95    93
 C    -2.37080   3.42670  -1.31740    95    96    14    94
 C    -2.06700   2.85910  -2.55650    96    89    10    95
 C    -4.74020   0.76820  -0.27220    97    88    79    98
 C    -4.13130   1.68820  -1.12270    98    97    90    94
