    98
C98-C1-19                                                                       
 C    -2.54700  -2.08080   2.68150     1     2    65     4
 C    -3.72620  -1.93250   1.95880     2     3    61     1
 C    -4.46240  -0.77370   1.95010     3     6    22     2
 C    -2.04130  -0.92520   3.39970     4     5     9     1
 C    -2.77260   0.23480   3.25330     5     6     4    14
 C    -3.95360   0.30760   2.58220     6     3    23     5
 C     1.44290  -1.80380   3.34440     7     8    72    10
 C     0.09040  -1.86000   3.43910     8     7     9    66
 C    -0.67870  -0.75560   3.70300     9     8     4    12
 C     2.19770  -0.64000   3.43680    10     7    18    11
 C     1.44410   0.57960   3.59650    11    16    10    12
 C     0.00590   0.52970   3.73950    12    13    11     9
 C    -0.78600   1.67460   3.37590    13    14    34    12
 C    -2.14740   1.47350   3.18650    14    27     5    13
 C     3.34280   1.65870   2.52010    15    93    17    16
 C     2.04750   1.77530   3.09720    16    15    11    35
 C     4.01540   0.46650   2.34080    17    18    15    98
 C     3.46610  -0.69840   2.78730    18    17    19    10
 C     3.82900  -1.82270   2.03790    19    71    96    18
 C    -5.22820   0.60900   0.20010    20    39    21    22
 C    -4.70910   1.69070   0.85810    21    23    25    20
 C    -5.12050  -0.64010   0.76370    22    38     3    20
 C    -4.07590   1.54830   2.05080    23     6    21    27
 C    -2.22720   3.62400  -0.75490    24    32    26    42
 C    -4.12860   2.53940  -0.04320    25    21    26    40
 C    -3.04570   3.32910   0.29500    26    24    25    29
 C    -2.96000   2.26390   2.38650    27    23    29    14
 C    -1.03670   3.54310   1.77110    28    31    29    34
 C    -2.40690   3.23210   1.57620    29    27    28    26
 C     0.98200   4.13700   0.60270    30    31    33    88
 C    -0.36420   4.10000   0.65570    31    30    32    28
 C    -0.96630   4.03280  -0.58920    32    24    31    90
 C     1.76530   3.63040   1.60850    33    94    30    35
 C    -0.20230   2.81520   2.73760    34    35    13    28
 C     1.21220   2.85420   2.63960    35    33    34    16
 C    -4.53800  -1.54200  -1.30710    36    45    38    37
 C    -4.58040  -0.29140  -1.87080    37    39    36    53
 C    -4.77250  -1.72390   0.02060    38    22    36    61
 C    -4.92900   0.77760  -1.12290    39    37    40    20
 C    -4.24420   1.93750  -1.30510    40    39    41    25
 C    -3.23790   2.05650  -2.26940    41    42    40    52
 C    -2.29060   2.97840  -1.98980    42    41    55    24
 C    -1.61220  -3.46400  -1.78620    43    44    62    48
 C    -2.81740  -3.20330  -1.23540    44    43    45    60
 C    -3.55100  -2.23880  -1.90870    45    36    44    46
 C    -2.96190  -1.42400  -2.88100    46    53    47    45
 C    -1.67790  -1.57550  -3.32680    47    46    48    58
 C    -1.07630  -2.70760  -2.82890    48    50    47    43
 C     1.10540  -1.92160  -3.33140    49    51    50    59
 C     0.24870  -2.88070  -2.82970    50    48    49    73
 C     2.39040  -2.07270  -2.86470    51    86    49    74
 C    -2.81610   0.95110  -3.05880    52    53    41    57
 C    -3.55620  -0.20180  -2.79780    53    46    37    52
 C     1.48530   0.48310  -3.58530    54    85    82    59
 C    -1.03310   2.96120  -2.52280    55    90    42    56
 C    -0.51940   1.91880  -3.31430    56    55    57    82
 C    -1.44070   0.84000  -3.53400    57    56    58    52
 C    -0.85390  -0.46660  -3.71340    58    47    57    59
 C     0.58110  -0.63960  -3.72400    59    49    58    54
 C    -2.94760  -3.35560   0.17220    60    61    44    64
 C    -3.93110  -2.55540   0.73900    61    38     2    60
 C    -0.57290  -4.00890  -1.10210    62    43    73    63
 C    -0.58950  -4.16080   0.28390    63    62    68    64
 C    -1.79650  -3.71620   0.93890    64    60    63    65
 C    -1.64010  -3.05770   2.21680    65    66     1    64
 C    -0.36430  -2.95940   2.70300    66    69    65     8
 C     1.91180  -4.03110   0.11440    67    70    75    68
 C     0.69670  -4.12720   0.87460    68    69    63    67
 C     0.73620  -3.52580   2.12800    69    72    66    68
 C     3.04110  -3.45220   0.71760    70    71    78    67
 C     2.98300  -2.88360   1.95050    71    72    70    19
 C     1.83730  -2.88740   2.60530    72    71    69     7
 C     0.57910  -3.76240  -1.80480    73    75    62    50
 C     2.75470  -3.01180  -1.89920    74    77    75    51
 C     1.81870  -3.80740  -1.27000    75    73    74    67
 C     4.19360  -1.31330  -1.79840    76    77    80    86
 C     3.84620  -2.51610  -1.26290    77    78    74    76
 C     4.01150  -2.74100   0.05430    78    77    70    96
 C     4.53570   0.95120  -1.50670    79    95    80    84
 C     4.81750  -0.32570  -1.05760    80    79    76    97
 C     1.72380   2.75510  -2.62480    81    83    89    82
 C     0.91320   1.78920  -3.34070    82    56    54    81
 C     3.02710   2.43900  -2.24650    83    84    91    81
 C     3.57620   1.21670  -2.50380    84    83    85    79
 C     2.84200   0.24040  -3.14880    85    86    84    54
 C     3.25560  -1.02930  -2.79720    86    51    85    76
 C     2.94570   3.67460  -0.26230    87    88    91    94
 C     1.71070   4.06030  -0.58180    88    87    89    30
 C     1.09480   3.69370  -1.76970    89    90    88    81
 C    -0.23980   3.74000  -1.73340    90    89    55    32
 C     3.65960   2.92260  -1.11880    91    87    95    83
 C     4.65100   1.80260   0.69850    92    98    95    93
 C     3.81250   2.48850   1.53880    93    94    15    92
 C     3.00250   3.43460   1.07760    94    93    33    87
 C     4.54440   2.01230  -0.64910    95    91    79    92
 C     4.53690  -1.74830   0.84720    96    78    97    19
 C     4.99130  -0.54500   0.34490    97    96    98    80
 C     4.81180   0.54710   1.18300    98    92    97    17
