    98
C98-Cs-151                                                                      
 C     3.13040  -3.11270  -1.26280     1    65     2     4
 C     4.05020  -2.51470  -0.38960     2     3    40     1
 C     4.66400  -1.34850  -0.63990     3     2     6    15
 C     2.71380  -2.31580  -2.39790     4     5     9     1
 C     3.34570  -1.10300  -2.57330     5     6     4    23
 C     4.35900  -0.65830  -1.76420     6    16     3     5
 C    -0.72830  -3.43670  -2.41940     7     8    11    75
 C     0.63300  -3.42910  -2.37910     8     7     9    64
 C     1.39220  -2.40010  -2.91690     9     8     4    12
 C    -2.73770  -2.31010  -2.48420    10    93    11    76
 C    -1.44630  -2.39890  -2.98340    11     7    10    21
 C     0.68150  -1.24540  -3.47710    12    22    21     9
 C     4.83930   0.66240   0.52250    13    15    30    14
 C     4.68150   1.36180  -0.64930    14    18    16    13
 C     4.83330  -0.66210   0.53510    15    13    39     3
 C     4.36410   0.68540  -1.77400    16     6    14    17
 C     3.35600   1.13280  -2.58190    17    16    20    23
 C     4.05850   2.51920  -0.38230    18    14    31    19
 C     3.13760   3.12260  -1.25360    19    34    18    20
 C     2.71790   2.34210  -2.40190    20    17    25    19
 C    -0.76560  -1.24070  -3.49410    21    11    12    26
 C     1.37150   0.01520  -3.51200    22    23    12    28
 C     2.70330   0.01480  -3.09410    23     5    17    22
 C     0.63480   3.45360  -2.37570    24    98    25    33
 C     1.39660   2.42770  -2.91940    25    24    20    28
 C    -1.49450   0.01420  -3.51730    26    94    21    27
 C    -0.76750   1.27280  -3.49640    27    97    28    26
 C     0.67950   1.27620  -3.48110    28    22    27    25
 C     2.87810   3.20020   1.50590    29    31    32    35
 C     4.20870   1.32620   1.53410    30    31    13    37
 C     3.86100   2.51660   0.98640    31    29    30    18
 C     2.14100   4.03290   0.73910    32    29    62    34
 C     1.03200   4.21210  -1.28150    33    34    60    24
 C     2.22300   3.99160  -0.66350    34    33    19    32
 C     2.12050   2.67860   2.53080    35    44    29    36
 C     2.27910   1.38130   3.03680    36    35    37    49
 C     3.42560   0.68630   2.54370    37    38    36    30
 C     3.42740  -0.71520   2.53840    38    37    39    41
 C     4.21000  -1.35080   1.52850    39    40    15    38
 C     3.86750  -2.54410   0.98170    40    43    39     2
 C     2.27920  -1.41210   3.02650    41    42    38    50
 C     2.12300  -2.70740   2.51250    42    52    43    41
 C     2.88640  -3.23390   1.49170    43    40    66    42
 C     0.94210   3.33640   2.47530    44    35    47    62
 C    -2.62120  -1.40780   2.89650    45    71    46    55
 C    -3.66230  -0.68530   2.33650    46    51    45    84
 C    -0.21060   2.77250   2.96580    47    44    59    48
 C    -0.19440   1.42330   3.47380    48    47    54    49
 C     1.07950   0.70480   3.50160    49    50    36    48
 C     1.07800  -0.73880   3.49850    50    49    41    56
 C    -3.66170   0.66680   2.33720    51    46    53    88
 C     0.93930  -3.36210   2.46350    52    42    57    67
 C    -2.61670   1.38470   2.89680    53    58    51    54
 C    -1.45600   0.70600   3.43970    54    55    53    48
 C    -1.45550  -0.73680   3.43980    55    54    45    56
 C    -0.19550  -1.45640   3.46950    56    57    55    50
 C    -0.21440  -2.80340   2.95740    57    52    72    56
 C    -2.51730   2.65700   2.36710    58    59    53    85
 C    -1.34820   3.32910   2.40080    59    58    47    63
 C    -0.11020   4.59490  -0.61570    60    89    33    61
 C    -0.16270   4.60670   0.77010    61    62    63    60
 C     0.96710   4.23370   1.39980    62    61    32    44
 C    -1.33990   4.22330   1.32790    63    61    92    59
 C     1.03130  -4.20160  -1.29520    64    65    70     8
 C     2.22360  -3.99150  -0.67060    65    64     1    66
 C     2.13600  -4.05370   0.73060    66    43    67    65
 C     0.96170  -4.25450   1.38200    67    69    66    52
 C    -1.33610  -4.22290   1.31570    68    69    73    72
 C    -0.16880  -4.61460   0.73950    69    67    68    70
 C    -0.11740  -4.59160  -0.64440    70    75    64    69
 C    -2.52590  -2.67790   2.36420    71    72    45    77
 C    -1.35840  -3.34590   2.39910    72    71    57    68
 C    -2.47010  -4.00370   0.58220    73    68    77    74
 C    -2.42870  -3.98830  -0.80670    74    76    75    73
 C    -1.20670  -4.21320  -1.36630    75    70    74     7
 C    -3.22150  -3.07220  -1.41980    76    74    79    10
 C    -3.26630  -3.12170   1.26620    77    78    73    71
 C    -4.16440  -2.31300   0.63910    78    77    84    79
 C    -4.13100  -2.30200  -0.75040    79    76    81    78
 C    -4.73490   0.00740  -0.84820    80    81    82    83
 C    -4.32560  -1.14560  -1.45360    81    80    79    93
 C    -4.31910   1.16270  -1.44620    82    80    86    95
 C    -4.78170  -0.00270   0.54190    83    84    88    80
 C    -4.41570  -1.11540   1.24000    84    78    83    46
 C    -3.25770   3.11980   1.27500    85    87    92    58
 C    -4.11900   2.31580  -0.73210    86    82    90    87
 C    -4.16140   2.30850   0.65830    87    88    85    86
 C    -4.41700   1.11260   1.24770    88    87    83    51
 C    -1.19630   4.21340  -1.35130    89    60    91    98
 C    -3.20590   3.08130  -1.41420    90    91    86    96
 C    -2.41980   3.99620  -0.78080    91    90    89    92
 C    -2.47380   4.01290   0.60200    92    63    85    91
 C    -3.41650  -1.13810  -2.51390    93    10    94    81
 C    -2.85610   0.01480  -3.03180    94    95    93    26
 C    -3.41430   1.16660  -2.51010    95    96    94    82
 C    -2.73630   2.33310  -2.49210    96    95    97    90
 C    -1.44810   2.43210  -2.98730    97    98    96    27
 C    -0.72520   3.46010  -2.42360    98    24    97    89
