    98
C98-Cs-203                                                                      
 C     3.86480   1.34820  -2.12010     1     9     4     2
 C     4.64160   0.69780  -1.16360     2     3     1     7
 C     4.65440   1.37050   0.04670     3     6    56     2
 C     3.19570   2.54060  -1.91630     4     5     1    20
 C     3.26190   3.22170  -0.72080     5     4     6    27
 C     4.00800   2.56160   0.26010     6     3    67     5
 C     4.64000  -0.71480  -1.15750     7     8    11     2
 C     4.65010  -1.37720   0.05880     8    31    57     7
 C     3.10270   0.64850  -3.00580     9    10     1    12
 C     3.10460  -0.68050  -2.99570    10     9    11    18
 C     3.86190  -1.37730  -2.10660    11    10    29     7
 C     1.96940   1.32920  -3.34420    12     9    20    16
 C    -1.62560   0.70780  -3.55380    13    14    15    41
 C    -2.74890   1.33380  -2.98410    14    24    86    13
 C    -0.40930   1.45730  -3.56220    15    16    13    23
 C     0.77850   0.70450  -3.72760    16    12    15    17
 C     0.78080  -0.74070  -3.72240    17    18    42    16
 C     1.97100  -1.36330  -3.33010    18    10    35    17
 C     0.91010   3.27650  -2.40520    19    20    25    23
 C     2.03570   2.54040  -2.68980    20    19    12     4
 C    -1.41910   4.04820  -1.15170    21    28    22    90
 C    -1.53500   3.26100  -2.28820    22    24    21    23
 C    -0.35250   2.78080  -2.91020    23    22    19    15
 C    -2.70280   2.54430  -2.35180    24    14    22    93
 C     1.00540   4.08340  -1.22290    25    28    27    19
 C     1.86360   4.01060   1.02470    26    94    66    27
 C     2.14620   3.98730  -0.35960    27     5    26    25
 C    -0.20780   4.39200  -0.63420    28    21    98    25
 C     3.19710  -2.56890  -1.89880    29    30    11    35
 C     3.25700  -3.23610  -0.69640    30    29    31    33
 C     3.99810  -2.56380   0.27970    31     8    48    30
 C     0.99800  -4.09320  -1.20130    32    34    37    33
 C     2.13640  -3.99160  -0.33230    33    30    46    32
 C    -0.21120  -4.39570  -0.60280    34    40    44    32
 C     2.03850  -2.57270  -2.67450    35    37    18    29
 C    -0.35040  -2.80270  -2.89670    36    39    37    42
 C     0.90850  -3.30030  -2.39170    37    35    32    36
 C    -2.69420  -2.55690  -2.32600    38    43    39    52
 C    -1.52710  -3.28050  -2.25820    39    38    40    36
 C    -1.42340  -4.05870  -1.11490    40    34    39    54
 C    -1.62830  -0.73930  -3.54880    41    43    42    13
 C    -0.41380  -1.48580  -3.55590    42    17    41    36
 C    -2.75200  -1.35030  -2.97260    43    87    38    41
 C    -0.38550  -4.44080   0.75760    44    45    49    34
 C     0.61590  -4.13990   1.55120    45    44    46    69
 C     1.85110  -3.99300   1.05100    46    45    47    33
 C     2.50310  -3.19930   1.94030    47    48    46    59
 C     3.56180  -2.52040   1.58140    48    47    58    31
 C    -1.63490  -4.09080   1.09140    49    44    54    50
 C    -1.89000  -3.28680   2.21270    50    51    49    68
 C    -3.01850  -2.54750   2.10130    51    50    71    55
 C    -3.67850  -2.54730  -1.33130    52    82    53    38
 C    -3.46900  -3.21640  -0.15160    53    54    52    55
 C    -2.35170  -3.97220  -0.07880    54    53    49    40
 C    -3.85770  -2.54680   0.98550    55    84    53    51
 C     4.57540   0.66310   1.22910    56    57    64     3
 C     4.57420  -0.66040   1.23620    57    56    58     8
 C     3.81170  -1.32290   2.15650    58    48    57    61
 C     1.60250  -2.67700   2.85700    59    69    47    60
 C     1.70480  -1.38430   3.39200    60    59    61    74
 C     2.90010  -0.68590   3.04840    61    63    58    60
 C     1.70150   1.41240   3.37300    62    65    63    75
 C     2.90190   0.71370   3.03640    63    61    64    62
 C     3.81240   1.34390   2.13650    64    67    56    63
 C     1.60950   2.70020   2.82490    65    81    66    62
 C     2.51670   3.22340   1.91880    66    67    26    65
 C     3.57310   2.54460   1.56270    67    66    64     6
 C    -0.80160  -2.77250   2.96990    68    69    50    73
 C     0.42290  -3.30670   2.63970    69    59    68    45
 C    -0.80280   1.46390   3.51480    70    79    80    75
 C    -3.09840  -1.32190   2.70620    71    51    76    72
 C    -2.01860  -0.69810   3.38900    72    71    79    73
 C    -0.80330  -1.43540   3.53290    73    72    68    74
 C     0.45820  -0.71390   3.71530    74    60    75    73
 C     0.45780   0.73960   3.70580    75    62    74    70
 C    -4.07940  -0.65040   2.02240    76    77    84    71
 C    -4.07570   0.67190   2.01770    77    76    88    78
 C    -3.09740   1.35340   2.69920    78    95    77    79
 C    -2.02130   0.72740   3.38150    79    78    72    70
 C    -0.79370   2.79800   2.93870    80    81    96    70
 C     0.43130   3.32930   2.59940    81    65    80    94
 C    -4.35060  -1.35550  -1.38740    82    87    52    83
 C    -4.84860  -0.70200  -0.25300    83    84    82    89
 C    -4.51920  -1.35610   0.93190    84    55    76    83
 C    -4.35060   1.35240  -1.40120    85    86    93    89
 C    -3.80750   0.65230  -2.44010    86    87    85    14
 C    -3.80840  -0.66710  -2.43360    87    86    82    43
 C    -4.50890   1.36940   0.91890    88    91    77    89
 C    -4.84480   0.70740  -0.26050    89    88    85    83
 C    -2.34160   3.96730  -0.10220    90    92    97    21
 C    -3.84180   2.56160   0.97040    91    88    92    95
 C    -3.46550   3.21610  -0.18460    92    90    93    91
 C    -3.68480   2.54990  -1.35720    93    92    85    24
 C     0.62450   4.17030   1.51360    94    98    26    81
 C    -3.01540   2.57420   2.09400    95    96    78    91
 C    -1.88910   3.31430   2.18560    96    95    97    80
 C    -1.62620   4.10880   1.06230    97    98    90    96
 C    -0.38600   4.45670   0.72590    98    94    97    28
