    98
C98-Cs-192                                                                      
 C     2.48820  -2.57160   2.47520     1    64     2     4
 C     1.35450  -3.34580   2.35490     2     1    56     3
 C     1.29150  -4.19900   1.19430     3     8     6     2
 C     3.52310  -2.54920   1.55620     4     5     7     1
 C     3.40310  -3.25080   0.43160     5     4     6    17
 C     2.32650  -4.05270   0.25740     6     5    10     3
 C     4.14450  -1.34620   1.56340     7     4    74    22
 C     0.04210  -4.54880   0.67420     8     9     3    12
 C    -1.07150  -4.16240   1.36980     9     8    27    54
 C     2.08490  -4.02010  -1.09060    10    11    13     6
 C     0.86570  -4.22180  -1.55420    11    10    12    36
 C    -0.13930  -4.57570  -0.71830    12    11    25     8
 C     2.90520  -3.12160  -1.68890    13    10    17    14
 C     2.42160  -2.31210  -2.72490    14    15    13    35
 C     3.03130  -1.10410  -2.78710    15    14    38    21
 C     4.39930  -1.42630  -0.78730    16    17    21    22
 C     3.80960  -2.67330  -0.74770    17     5    16    13
 C     3.80210   2.66480  -0.73100    18    98    19    92
 C     4.39270   1.41540  -0.78260    19    18    20    24
 C     4.01640   0.67010  -1.89150    20    21    19    94
 C     4.01840  -0.68080  -1.89300    21    20    16    15
 C     4.65590  -0.70920   0.40930    22     7    24    16
 C     4.15700   1.34630   1.57390    23    96    73    24
 C     4.65480   0.70790   0.41800    24    23    22    19
 C    -1.30400  -4.20690  -1.32650    25    26    12    29
 C    -2.42690  -3.96490  -0.61130    26    25    28    27
 C    -2.29310  -3.95170   0.76690    27    45     9    26
 C    -3.29250  -3.06400  -1.15450    28    26    43    31
 C    -0.97850  -3.46640  -2.46880    29    36    30    25
 C    -1.74760  -2.42300  -2.93880    30    29    31    41
 C    -2.96180  -2.31430  -2.28340    31    33    30    28
 C    -3.13880  -0.00210  -2.80750    32    33    34    42
 C    -3.64050  -1.14950  -2.21840    33    31    32    47
 C    -3.63460   1.15040  -2.21600    34    90    32    48
 C     1.07810  -2.42380  -3.17160    35    36    14    40
 C     0.36740  -3.46670  -2.59340    36    29    11    35
 C    -1.11740   1.25720  -3.51250    37    89    86    42
 C     2.37000  -0.00380  -3.28290    38    94    15    39
 C     1.01540  -0.00570  -3.69650    39    38    86    40
 C     0.32660  -1.26630  -3.63680    40    39    41    35
 C    -1.12020  -1.26090  -3.51850    41    30    42    40
 C    -1.83960  -0.00260  -3.45350    42    41    32    37
 C    -4.12170  -2.30310  -0.37500    43    28    47    44
 C    -3.99840  -2.29300   1.00880    44    46    45    43
 C    -3.01560  -3.08460   1.53260    45    27    44    53
 C    -4.20130  -1.10240   1.63490    46    44    50    51
 C    -4.41800  -1.15180  -1.05820    47    49    43    33
 C    -4.40930   1.16110  -1.05240    48    49    65    34
 C    -4.75160   0.00250  -0.41690    49    47    48    50
 C    -4.64560   0.01060   0.96890    50    67    46    49
 C    -3.37110  -0.66780   2.66610    51    57    52    46
 C    -2.28990  -1.40010   3.13180    52    53    51    61
 C    -2.18610  -2.66080   2.56700    53    54    52    45
 C    -1.00060  -3.32570   2.47580    54    53    56     9
 C     0.13210  -1.47200   3.56680    55    63    61    56
 C     0.18090  -2.80950   2.97060    56    54     2    55
 C    -3.37770   0.68730   2.66370    57    51    59    67
 C    -2.18640   2.66070   2.55550    58    69    59    68
 C    -2.28580   1.40180   3.13130    59    57    58    60
 C    -1.11230   0.73230   3.61340    60    59    62    61
 C    -1.11430  -0.73090   3.61550    61    52    55    60
 C     0.13470   1.47040   3.56150    62    71    60    70
 C     1.33450  -0.71670   3.60660    63    64    55    71
 C     2.48420  -1.34460   3.09020    64    74     1    63
 C    -4.12000   2.31310  -0.37070    65    81    48    66
 C    -4.00360   2.31020   1.01460    66    67    68    65
 C    -4.21610   1.12380   1.63910    67    66    50    57
 C    -3.01500   3.10420   1.52580    68    84    66    58
 C    -0.99540   3.32250   2.45940    69    58    70    75
 C     0.18920   2.80770   2.96070    70    69    79    62
 C     1.34110   0.71900   3.60500    71    72    62    63
 C     2.49340   1.34880   3.09710    72    80    73    71
 C     3.56060   0.65270   2.58380    73    74    23    72
 C     3.55470  -0.65550   2.57870    74    73     7    64
 C    -1.06570   4.17740   1.36540    75    77    84    69
 C    -0.12270   4.57640  -0.70950    76    95    82    77
 C     0.05810   4.55590   0.68490    77    75    78    76
 C     1.30530   4.20400   1.20630    78    77    97    79
 C     1.37330   3.34250   2.36150    79    80    70    78
 C     2.51150   2.57440   2.48680    80    72    79    96
 C    -3.28780   3.06700  -1.15310    81    83    65    90
 C    -1.28950   4.19980  -1.32060    82    83    76    88
 C    -2.41940   3.96760  -0.61080    83    82    81    84
 C    -2.28780   3.97180   0.76470    84    68    75    83
 C     1.08300   2.40790  -3.16480    85    87    93    86
 C     0.32980   1.25610  -3.63270    86    39    37    85
 C     0.38010   3.45300  -2.57440    87    88    95    85
 C    -0.96550   3.45330  -2.45950    88    87    89    82
 C    -1.74390   2.41770  -2.93170    89    88    90    37
 C    -2.95710   2.31860  -2.28360    90    34    89    81
 C     2.09520   4.01940  -1.07150    91    95    92    97
 C     2.90230   3.11200  -1.68300    92    91    18    93
 C     2.42570   2.30200  -2.71820    93    94    92    85
 C     3.03220   1.09600  -2.78870    94    93    38    20
 C     0.88160   4.21880  -1.54300    95    91    76    87
 C     3.54930   2.56010   1.56890    96    98    23    80
 C     2.35180   4.06060   0.27450    97    98    91    78
 C     3.42200   3.26310   0.44820    98    96    97    18
