    98
C98-C1-187                                                                      
 C     3.75430  -2.44550   0.63030     1    64     4     2
 C     4.28830  -1.17030   0.79210     2     1    58     3
 C     4.55440  -0.41540  -0.40510     3    14     6     2
 C     3.42580  -2.97510  -0.60140     4     5     7     1
 C     3.56280  -2.23260  -1.68450     5     4     6     8
 C     4.13700  -1.01790  -1.61360     6     5    16     3
 C     2.39850  -3.84380  -0.49940     7     4    67    10
 C     2.58290  -2.26030  -2.66300     8    19     9     5
 C     1.47220  -3.07670  -2.59950     9     8    21    10
 C     1.39580  -3.98230  -1.48220    10    12     7     9
 C    -0.95530  -4.00510  -1.70640    11    12    98    22
 C     0.15350  -4.41510  -1.01300    12    11    10    13
 C    -0.04200  -4.57640   0.36820    13    66    95    12
 C     4.49430   0.99440  -0.38650    14    15    18     3
 C     4.19090   1.61990   0.79830    15    60    14    26
 C     3.60040  -0.31660  -2.65040    16    17     6    19
 C     3.56000   0.99450  -2.60080    17    16    30    18
 C     4.02510   1.67570  -1.50490    18    17    24    14
 C     2.57940  -1.02930  -3.25430    19     8    16    20
 C     1.43170  -0.42650  -3.80200    20    19    29    28
 C     0.29520  -2.54410  -3.22410    21    22     9    28
 C    -0.88700  -3.09990  -2.75870    22    52    21    11
 C     2.43890   2.80670  -2.48830    23    27    30    24
 C     3.30300   2.84130  -1.43290    24    23    18    25
 C     2.95430   3.46450  -0.24000    25    26    24    35
 C     3.45060   2.81540   0.86520    26    37    25    15
 C     1.29130   3.43800  -2.42650    27    23    34    31
 C     0.22800  -1.19350  -3.79320    28    20    32    21
 C     1.40920   0.99500  -3.77910    29    30    33    20
 C     2.51930   1.63990  -3.18480    30    17    23    29
 C     0.19430   2.93470  -3.08040    31    50    27    33
 C    -1.04580  -0.47840  -3.81560    32    53    28    54
 C     0.17080   1.68050  -3.73840    33    29    31    54
 C     0.93120   4.14250  -1.30560    34    46    27    35
 C     1.70700   4.14410  -0.13330    35    34    25    41
 C     1.53200   3.47760   2.21530    36    37    44    41
 C     2.76260   2.82930   2.04180    37    26    38    36
 C     3.10810   1.66730   2.69080    38    39    60    37
 C     2.25290   1.08290   3.52210    39    38    45    61
 C    -0.46790   4.31110   1.04290    40    42    48    41
 C     0.96280   4.18200   1.09830    41    40    36    35
 C    -1.22620   3.72340   2.06930    42    43    82    40
 C    -0.66420   2.97830   3.06310    43    44    42    68
 C     0.68560   2.85340   3.17450    44    43    45    36
 C     1.06040   1.66070   3.77070    45    39    70    44
 C    -0.41950   4.21430  -1.34430    46    34    48    50
 C    -2.45050   3.87090  -0.31050    47    81    48    51
 C    -1.15950   4.36000  -0.20240    48    46    47    40
 C    -2.10370   2.91300  -2.51980    49    50    51    57
 C    -0.87840   3.48920  -2.45570    50    49    31    46
 C    -2.92270   3.20420  -1.43100    51    88    47    49
 C    -2.08550  -2.44880  -2.82970    52    22    53    91
 C    -2.20530  -1.16820  -3.33980    53    52    55    32
 C    -1.07200   0.98470  -3.76720    54    33    57    32
 C    -3.28020  -0.46400  -2.82190    55    56    53    94
 C    -3.29030   0.88750  -2.75270    56    55    87    57
 C    -2.22730   1.66130  -3.20000    57    56    49    54
 C     3.92930  -0.50750   1.99240    58    60     2    59
 C     2.98390  -1.12160   2.90580    59    61    63    58
 C     3.94100   0.89250   1.93610    60    38    15    58
 C     2.16640  -0.26990   3.63460    61    39    71    59
 C     1.06770  -2.70760   3.10220    62    65    73    63
 C     2.42240  -2.39290   2.67180    63    64    59    62
 C     2.89760  -3.04350   1.53140    64    67     1    63
 C     0.39920  -3.67840   2.36160    65    66    79    62
 C     0.93710  -4.28060   1.25640    66    67    13    65
 C     2.14240  -3.95020   0.83910    67    66     7    64
 C    -1.57180   1.97240   3.43190    68    85    69    43
 C    -1.17180   0.73350   3.90300    69    70    68    75
 C     0.18520   0.63650   4.09240    70    71    69    45
 C     0.86390  -0.55450   4.00650    71    73    70    61
 C    -1.21560  -1.69870   3.55310    72    78    73    75
 C     0.22600  -1.73970   3.73330    73    71    62    72
 C    -3.15540  -0.21790   2.84780    74    76    84    75
 C    -1.93600  -0.42500   3.61090    75    69    74    72
 C    -3.60510  -1.29580   2.09780    76    77    89    74
 C    -2.95470  -2.50630   2.07000    77    76    78    96
 C    -1.78250  -2.73660   2.77200    78    77    79    72
 C    -0.96130  -3.69740   2.20190    79    65    78    95
 C    -3.98180   2.36410   0.34840    80    81    88    83
 C    -3.12000   3.33560   0.75190    81    82    80    47
 C    -2.49920   3.23660   1.91830    82    81    42    85
 C    -4.25300   1.21160   1.11410    83    90    80    84
 C    -3.54340   1.07480   2.36040    84    85    74    83
 C    -2.71060   2.13390   2.70710    85    68    82    84
 C    -4.50760   0.11530  -1.03570    86    87    94    90
 C    -4.10140   1.23150  -1.68980    87    88    86    56
 C    -3.89160   2.34850  -1.01900    88    87    51    80
 C    -4.29520  -1.16490   0.90210    89    90    92    76
 C    -4.58760   0.06430   0.37020    90    89    83    86
 C    -2.89950  -2.94520  -1.81260    91    98    93    52
 C    -4.01550  -2.27230   0.12900    92    96    89    93
 C    -3.87700  -2.17300  -1.24530    93    94    91    92
 C    -4.08760  -0.95550  -1.79000    94    93    86    55
 C    -1.24230  -4.30300   0.97550    95    97    13    79
 C    -3.23520  -3.12810   0.85740    96    92    97    77
 C    -2.35340  -3.99120   0.26320    97    95    96    98
 C    -2.18690  -3.86480  -1.10180    98    91    11    97
