    98
C98-C1-106                                                                      
 C     3.48340  -1.85660  -2.21550     1     2     6    64
 C     3.73180  -0.55170  -2.53390     2     1     3    10
 C     4.47970   0.12110  -1.56470     3     4     2    61
 C     4.37080   1.45580  -1.43110     4     3     5    14
 C     3.50890   2.15760  -2.20090     5    15     4    11
 C     2.36820  -2.49740  -2.67960     6     1     8    66
 C     0.18880  -2.41290  -3.34960     7    33     8    65
 C     1.42450  -1.84570  -3.45130     8     7     6     9
 C     1.54230  -0.45930  -3.75590     9     8    10    32
 C     2.75010   0.16010  -3.31210    10    11     9     2
 C     2.68310   1.52300  -3.09260    11     5    10    26
 C     3.82980   2.80710   0.38750    12    14    13    38
 C     3.03100   3.56670  -0.41240    13    17    15    12
 C     4.51070   1.76560  -0.10590    14    12    37     4
 C     2.84940   3.22270  -1.71000    15     5    13    19
 C    -0.27950   4.19180   0.56310    16    24    18    40
 C     1.98600   4.02740   0.28620    17    13    18    39
 C     0.75870   4.25300  -0.30790    18    16    17    21
 C     1.61820   3.31000  -2.29300    19    15    21    26
 C    -0.76700   3.45240  -2.09870    20    21    23    30
 C     0.52000   3.85830  -1.66500    21    19    20    18
 C    -3.01300   2.97300  -1.31990    22    23    31    88
 C    -1.83470   3.64010  -1.17370    23    22    24    20
 C    -1.54180   3.96200   0.15040    24    16    90    23
 C     0.28650   1.71560  -3.57030    25    26    32    30
 C     1.50340   2.24950  -3.18030    26    25    19    11
 C    -3.24440  -0.47620  -3.11080    27    93    98    28
 C    -2.17470   0.31910  -3.60550    28    27    34    29
 C    -2.14680   1.68330  -3.18170    29    31    30    28
 C    -0.91110   2.38480  -3.10500    30    29    25    20
 C    -3.20590   2.06340  -2.32900    31    94    22    29
 C     0.30070   0.31670  -3.93250    32    34    25     9
 C    -0.93630  -1.72140  -3.62460    33     7    96    34
 C    -0.95750  -0.34850  -3.91320    34    33    28    32
 C     4.11540   0.47660   1.89940    35    37    46    36
 C     3.32570   1.59010   2.42090    36    38    43    35
 C     4.66860   0.62370   0.61240    37    14    61    35
 C     3.23310   2.72430   1.61530    38    12    39    36
 C     2.11470   3.52470   1.58830    39    41    38    17
 C    -0.15950   3.74920   1.87890    40    54    41    16
 C     1.03210   3.30210   2.40040    41    39    40    42
 C     1.02070   2.21880   3.30860    42    41    43    56
 C     2.20980   1.37320   3.29770    43    44    36    42
 C     2.03620   0.06410   3.68730    44    43    58    45
 C     2.79330  -0.98820   3.20790    45    48    44    46
 C     3.81080  -0.85500   2.26950    46    45    35    47
 C     3.97770  -1.95470   1.35160    47    50    60    46
 C     1.98650  -2.08700   3.29280    48    49    51    45
 C     2.10840  -3.08350   2.42670    49    48    50    69
 C     3.07920  -3.03580   1.48820    50    49    62    47
 C     0.77860  -1.78040   3.78030    51    48    58    52
 C    -0.37200  -2.45880   3.40710    52    53    51    68
 C    -1.50040  -1.73900   3.53830    53    52    75    59
 C    -1.37880   3.26860   2.25090    54    40    90    55
 C    -1.51680   2.24660   3.17630    55    54    84    56
 C    -0.28280   1.69040   3.70200    56    57    55    42
 C    -0.33000   0.33250   4.08990    57    58    59    56
 C     0.80490  -0.42530   4.06630    58    57    44    51
 C    -1.49610  -0.38430   3.90130    59    85    57    53
 C     4.40750  -1.69690   0.03110    60    61    64    47
 C     4.75090  -0.41920  -0.29820    61    60    37     3
 C     2.56970  -3.75250   0.44260    62    63    50    70
 C     2.94570  -3.43680  -0.79210    63    62    66    64
 C     3.83900  -2.43710  -1.00340    64    63     1    60
 C    -0.14230  -3.43100  -2.44270    65    67    82     7
 C     2.03800  -3.51200  -1.78590    66    63    67     6
 C     0.74180  -3.94780  -1.56700    67    65    66    72
 C    -0.31710  -3.45640   2.39490    68    69    52    73
 C     0.97420  -3.73650   1.96500    69    70    49    68
 C     1.26290  -4.14520   0.70270    70    69    62    72
 C    -1.11130  -4.04440   0.11490    71    81    72    73
 C     0.26810  -4.26240  -0.26150    72    70    67    71
 C    -1.42560  -3.64850   1.48310    73    76    68    71
 C    -3.34280  -0.84800   2.83530    74    77    75    85
 C    -2.60760  -2.00210   2.79700    75    53    74    76
 C    -2.64450  -2.92890   1.72860    76    75    79    73
 C    -4.24220  -0.60450   1.90620    77    74    78    86
 C    -4.42300  -1.48590   0.87000    78    95    77    79
 C    -3.58890  -2.62870   0.70500    79    80    78    76
 C    -3.26690  -2.98090  -0.62990    80    79    81    97
 C    -2.03820  -3.64210  -0.90610    81    82    80    71
 C    -1.46150  -3.33850  -2.15970    82    65    96    81
 C    -3.70640   1.76300   2.01870    83    86    89    84
 C    -2.72900   1.49240   3.03760    84    85    55    83
 C    -2.63770   0.16570   3.43200    85    59    74    84
 C    -4.47830   0.69350   1.52080    86    91    77    83
 C    -4.59320   1.56890  -0.64280    87    88    91    94
 C    -3.83980   2.62080  -0.24260    88    87    89    22
 C    -3.42170   2.77800   1.07760    89    90    88    83
 C    -2.27450   3.48170   1.22510    90    89    54    24
 C    -4.93410   0.59640   0.23960    91    87    86    95
 C    -4.57680  -1.02760  -1.40690    92    95    97    93
 C    -4.23470  -0.03500  -2.29890    93    94    27    92
 C    -4.22330   1.24260  -1.91620    94    93    87    31
 C    -4.91480  -0.72010  -0.14910    95    92    78    91
 C    -1.95310  -2.37830  -2.99520    96    98    33    82
 C    -3.79460  -2.11660  -1.63230    97    92    98    80
 C    -3.08060  -1.78870  -2.74800    98    96    97    27
