    98
C98-C1-223                                                                      
 C    -2.90640  -3.14160  -1.56570     1    57     9     2
 C    -1.73310  -3.44890  -2.24270     2     6     1     3
 C    -0.68500  -4.11660  -1.59680     3     2    58     4
 C     0.67980  -3.85440  -1.95170     4     5     3    11
 C     1.61920  -4.04420  -0.94810     5    14    43     4
 C    -1.40590  -2.52440  -3.20120     6     2    10     7
 C    -2.16810  -1.38730  -3.44450     7    26     8     6
 C    -3.30310  -1.05420  -2.74290     8     7     9    23
 C    -3.65740  -2.01090  -1.80010     9    67     1     8
 C    -0.09260  -2.25840  -3.53140    10    16     6    11
 C     1.01210  -2.86670  -2.94020    11    10     4    12
 C     2.24400  -2.10010  -2.89840    12    13    11    19
 C     3.15260  -2.41700  -1.84170    13    15    14    12
 C     2.80170  -3.36400  -0.89220    14     5    13    30
 C     4.00500  -1.43250  -1.36720    15    21    13    28
 C    -0.05770  -0.97980  -4.02710    16    18    10    26
 C     0.82320   1.13410  -3.98710    17    37    18    27
 C     1.08580  -0.22520  -4.00890    18    16    17    19
 C     2.28540  -0.74600  -3.44880    19    18    20    12
 C     3.21030   0.22810  -2.92550    20    21    38    19
 C     4.03610  -0.17640  -1.88570    21    15    33    20
 C    -4.25110   0.58480  -1.31550    22    93    68    23
 C    -3.57590   0.32690  -2.50680    23    22     8    24
 C    -2.71240   1.36200  -3.00040    24    25    23    95
 C    -1.59620   0.91680  -3.77760    25    27    26    24
 C    -1.34490  -0.43440  -3.94430    26     7    25    16
 C    -0.46000   1.68050  -3.85360    27    98    25    17
 C     4.38120  -1.34810  -0.02070    28    29    34    15
 C     3.92720  -2.23230   0.90510    29    30    28    31
 C     3.16810  -3.26310   0.45190    30    29    42    14
 C     3.60240  -1.71650   2.13490    31    29    36    40
 C     4.04460   1.92920  -0.83830    32    33    39    51
 C     4.43200   0.66130  -0.86490    33    32    34    21
 C     4.56880  -0.01820   0.29150    34    33    28    35
 C     4.20850   0.54690   1.52650    35    36    34    52
 C     3.72530  -0.37480   2.42480    36    55    35    31
 C     1.70170   2.02870  -3.46120    37    17    38    89
 C     2.90160   1.61990  -2.92790    38    37    39    20
 C     3.33380   2.43400  -1.87260    39    32    92    38
 C     2.53440  -2.21590   2.85850    40    45    41    31
 C     1.75990  -3.26920   2.43780    41    40    42    49
 C     2.15970  -3.80770   1.20750    42    43    30    41
 C     1.27510  -4.34700   0.35050    43    44    42     5
 C     0.00850  -4.46010   0.70640    44    43    58    50
 C     2.01160  -1.20170   3.59540    45    40    47    55
 C     0.21530   0.08670   4.16510    46    60    47    56
 C     0.67500  -1.18130   3.95320    47    46    45    48
 C    -0.23200  -2.20510   3.53810    48    47    49    62
 C     0.37290  -3.27490   2.78610    49    50    41    48
 C    -0.45900  -3.94170   1.90370    50    64    49    44
 C     3.68530   2.54720   0.34110    51    83    32    52
 C     3.68920   1.87800   1.56510    52    51    35    53
 C     2.66980   2.25870   2.51150    53    54    52    86
 C     2.24620   1.22590   3.40760    54    56    55    53
 C     2.76380  -0.04760   3.33030    55    36    54    45
 C     0.96920   1.25080   3.90880    56    88    54    46
 C    -3.04550  -3.41050  -0.22540    57    59    65     1
 C    -0.95340  -4.41040  -0.23770    58    44    59     3
 C    -2.07270  -4.00630   0.42940    59    57    58    64
 C    -1.10650   0.39060   4.04180    60    46    78    61
 C    -2.08990  -0.52420   3.61920    61    60    72    62
 C    -1.65350  -1.86460   3.34560    62    61    63    48
 C    -2.44460  -2.60610   2.40070    63    64    66    62
 C    -1.77700  -3.63770   1.72740    64    50    59    63
 C    -3.79910  -2.46330   0.38860    65    57    67    66
 C    -3.55200  -2.00560   1.71050    66    71    65    63
 C    -4.24320  -1.65920  -0.62310    67    68     9    65
 C    -4.54290  -0.40160  -0.38530    68    67    69    22
 C    -4.46180   0.07380   0.88470    69    68    75    71
 C    -3.18470   1.46270   2.76960    70    82    74    72
 C    -3.92560  -0.67160   1.97540    71    72    66    69
 C    -3.21690   0.06000   2.94840    72    71    70    61
 C    -2.94280   3.18930   1.34730    73    74    81    77
 C    -3.69430   2.09980   1.66760    74    75    73    70
 C    -4.28710   1.41160   0.71490    75    74    69    93
 C    -1.53480   4.20650  -0.16030    76    96    77    79
 C    -2.73530   3.57670   0.02640    77    76    73    94
 C    -1.13940   1.74080   3.80130    78    82    88    60
 C    -0.56700   4.35590   0.84290    79    84    80    76
 C    -0.71840   3.85980   2.11000    80    79    81    87
 C    -1.97510   3.31280   2.32600    81    82    73    80
 C    -2.16950   2.26400   3.16910    82    78    70    81
 C     2.79080   3.52020   0.00800    83    51    85    92
 C     0.65730   4.40720   0.25610    84    79    90    85
 C     1.81440   3.93890   0.89300    85    83    84    86
 C     1.71830   3.32080   2.17870    86    85    87    53
 C     0.41480   3.31860   2.78300    87    88    80    86
 C     0.11530   2.26440   3.64500    88    56    78    87
 C     0.97980   3.11400  -3.00190    89    91    98    37
 C     0.46020   4.34310  -1.11690    90    91    96    84
 C     1.42450   3.85330  -1.93820    91    92    90    89
 C     2.60080   3.48270  -1.37350    92    91    39    83
 C    -4.10270   1.74490  -0.61640    93    22    75    94
 C    -3.28960   2.79480  -1.03160    94    93    77    95
 C    -2.58030   2.62680  -2.27180    95    97    94    24
 C    -0.89230   4.14490  -1.35870    96    76    90    97
 C    -1.37220   3.37110  -2.42120    97    98    96    95
 C    -0.36040   2.88540  -3.22760    98    27    89    97
