    98
C98-Cs-24                                                                       
 C    -3.78550  -2.48770  -0.70850     1     6     2    65
 C    -4.21440  -1.41820  -1.44710     2     1     3     9
 C    -4.85580  -0.43560  -0.69550     3     4     2    62
 C    -4.84560   0.87710  -1.08210     4     5    18     3
 C    -4.09530   1.21810  -2.16220     5     4    19    10
 C    -2.77350  -3.28980  -1.13880     6     1    70     7
 C    -2.00600  -3.05680  -2.28740     7     6    14     8
 C    -2.31270  -1.85240  -3.01350     8     9     7    12
 C    -3.44380  -1.07700  -2.60490     9    10     8     2
 C    -3.40530   0.28660  -2.88980    10     5    28     9
 C     0.02750  -1.80270  -3.63170    11    29    13    12
 C    -1.20950  -1.18280  -3.67070    12    11    27     8
 C     0.28930  -2.96190  -2.95120    13    14    11    96
 C    -0.69300  -3.58270  -2.25120    14    13    15     7
 C    -0.19740  -4.21450  -1.12110    15    69    14    93
 C    -4.11250   2.82130   0.00070    16    17    36    18
 C    -3.36160   3.15450  -1.07710    17    19    16    26
 C    -4.87430   1.68230   0.01700    18    35     4    16
 C    -3.35990   2.36580  -2.16270    19    17    20     5
 C    -2.22980   2.18930  -2.88530    20    19    28    24
 C     1.37540   2.76390  -2.63770    21    22    23    44
 C     2.52610   2.01100  -2.90830    22    87    32    21
 C     0.14170   2.29590  -3.16410    23    24    21    31
 C    -1.03040   2.85550  -2.62410    24    20    23    25
 C    -0.99230   3.64980  -1.41650    25    26    45    24
 C    -2.16840   3.70750  -0.67870    26    17    37    25
 C    -1.16130   0.24530  -3.80290    27    28    12    31
 C    -2.27910   0.90830  -3.40630    28    27    20    10
 C     1.21350  -1.13730  -3.74980    29    11    30    90
 C     1.27290   0.23430  -3.85630    30    32    29    31
 C     0.07950   0.97400  -3.80180    31    30    27    23
 C     2.46420   0.75700  -3.45920    32    30    22    92
 C    -4.11810   1.19880   2.17480    33    35    34    49
 C    -3.37240   2.34480   2.16230    34    36    43    33
 C    -4.87150   0.85880   1.10100    35    33    18    62
 C    -3.35490   3.14320   1.08080    36    34    16    37
 C    -2.16710   3.70700   0.70350    37    36    26    41
 C     1.40970   3.52870   1.44400    38    39    40    57
 C     2.58750   3.47780   0.69740    39    83    46    38
 C     0.22090   3.85140   0.74890    40    38    41    45
 C    -0.99500   3.63740   1.43910    41    37    40    42
 C    -1.03240   2.83280   2.63860    42    43    58    41
 C    -2.23630   2.16300   2.88400    43    34    51    42
 C     1.41620   3.54600  -1.42070    44    46    45    21
 C     0.22480   3.85900  -0.73150    45    44    25    40
 C     2.59620   3.48840  -0.68660    46    88    39    44
 C     0.02230  -1.82270   3.60990    47    56    66    48
 C    -1.21840  -1.21060   3.65290    48    47    53    60
 C    -3.42120   0.26170   2.89100    49    33    51    50
 C    -3.45730  -1.10270   2.59400    50    49    60    61
 C    -2.28690   0.87940   3.39920    51    53    43    49
 C     0.07190   0.95530   3.79790    52    55    53    58
 C    -1.16370   0.21820   3.79410    53    51    48    52
 C     2.45690   0.73890   3.45800    54    55    59    74
 C     1.26310   0.20920   3.84860    55    54    56    52
 C     1.20730  -1.15900   3.73380    56    47    55    71
 C     1.37700   2.74480   2.66000    57    59    58    38
 C     0.14090   2.28010   3.17390    58    42    57    52
 C     2.52970   2.00040   2.92040    59    84    54    57
 C    -2.32110  -1.87630   2.99260    60    50    63    48
 C    -4.23220  -1.44130   1.43520    61    65    62    50
 C    -4.87770  -0.44770   0.70800    62    35    61     3
 C    -2.01180  -3.07110   2.25270    63    64    67    60
 C    -2.77290  -3.30360   1.10050    64    65    70    63
 C    -3.78900  -2.50120   0.69680    65    64    61     1
 C     0.28640  -2.97430   2.91900    66    67    47    72
 C    -0.69400  -3.58980   2.21460    67    66    68    63
 C    -0.20650  -4.21250   1.07580    68    69    67    81
 C    -0.97930  -4.31260  -0.02400    69    70    68    15
 C    -2.22790  -3.87200  -0.02110    70    69    64     6
 C     2.21840  -1.89270   3.11720    71    72    75    56
 C     1.63170  -2.97330   2.55540    72    71    80    66
 C     4.27140   0.81480   2.19100    73    74    76    84
 C     3.51540  -0.01050   2.93890    74    73    75    54
 C     3.37460  -1.35760   2.63420    75    71    74    78
 C     4.90060   0.34150   1.09090    76    73    85    77
 C     4.68950  -0.96710   0.68170    77    97    76    78
 C     3.92930  -1.87870   1.41910    78    77    75    79
 C     3.23770  -2.92410   0.71590    79    80    78    94
 C     2.11330  -3.51960   1.36940    80    81    72    79
 C     1.11750  -4.13920   0.65980    81    93    80    68
 C     4.42150   2.39300   0.00190    82    88    83    85
 C     3.72480   2.80750   1.09230    83    84    82    39
 C     3.67260   2.04740   2.18760    84    83    59    73
 C     5.01640   1.14740  -0.00160    85    89    76    82
 C     4.27660   0.82650  -2.18750    86    92    89    87
 C     3.67340   2.06040  -2.17450    87    88    22    86
 C     3.73020   2.82250  -1.07940    88    87    82    46
 C     4.91280   0.34470  -1.09230    89    86    85    97
 C     2.22420  -1.87780  -3.13950    90    96    91    29
 C     3.38220  -1.34670  -2.65160    91    90    92    98
 C     3.52200   0.00490  -2.94370    92    86    91    32
 C     1.12450  -4.14420  -0.70730    93    81    95    15
 C     3.24400  -2.92070  -0.75050    94    95    98    79
 C     2.12180  -3.51540  -1.40910    95    93    96    94
 C     1.63640  -2.96410  -2.58910    96    90    95    13
 C     4.70260  -0.96830  -0.70190    97    77    89    98
 C     3.94330  -1.87210  -1.44030    98    97    91    94
