    98
C98-D3-215                                                                      
 C    -3.97320  -1.03370   2.04350     1     6     2    62
 C    -3.67290  -2.23300   1.44590     2     1     3     9
 C    -4.00290  -2.27250   0.08220     3     4    61     2
 C    -3.28560  -3.00190  -0.80130     4     5     3    32
 C    -2.28750  -3.75450  -0.34990     5     4    18    10
 C    -3.21130  -0.56420   3.07520     6     1    67     7
 C    -2.09120  -1.23070   3.58590     7     6    14     8
 C    -1.71040  -2.48310   2.98020     8     9     7    12
 C    -2.53930  -2.96390   1.91470     9    10     2     8
 C    -1.89740  -3.75350   0.96900    10     5    25     9
 C     0.57240  -2.01170   3.65440    11    26    13    12
 C    -0.30400  -2.86390   3.00060    12    11    24     8
 C     0.17510  -0.80260   4.19760    13    14    98    11
 C    -1.11470  -0.38160   4.15140    14    13    15     7
 C    -1.23090   1.00870   4.04290    15    66    96    14
 C     0.16370  -3.22320  -2.79860    16    17    33    21
 C    -1.12180  -3.40390  -2.40740    17    16    18    31
 C    -1.23310  -3.99900  -1.14840    18     5    19    17
 C    -0.16340  -4.27060  -0.32070    19    20    18    25
 C     1.12310  -4.11000  -0.71770    20    19    21    29
 C     1.23890  -3.62130  -2.02500    21    23    16    20
 C     3.29090  -2.67730  -1.57420    22    23    47    30
 C     2.28960  -2.88400  -2.42020    23    22    21    38
 C     0.31600  -3.65600   1.97170    24    25    12    28
 C    -0.55990  -4.07490   0.98720    25    10    19    24
 C     1.91320  -1.90920   3.35800    26    91    11    27
 C     2.55140  -2.62930   2.35050    27    26    94    28
 C     1.72120  -3.53240   1.60810    28    27    29    24
 C     2.10730  -3.78450   0.23900    29    30    20    28
 C     3.22500  -3.10920  -0.26200    30    95    22    29
 C    -2.09850  -2.49060  -2.86070    31    32    17    35
 C    -3.21420  -2.37290  -2.02580    32    49     4    31
 C     0.56550  -2.15480  -3.57710    33    38    16    34
 C    -0.31710  -1.16630  -3.98190    34    33    41    35
 C    -1.72010  -1.33880  -3.64060    35    36    31    34
 C    -2.54660  -0.17620  -3.51620    36    37    48    35
 C    -1.91040   1.04170  -3.71770    37    50    42    36
 C     1.90490  -1.94330  -3.34580    38    23    33    39
 C     2.54080  -0.71330  -3.45480    39    38    46    40
 C     1.71190   0.37960  -3.86360    40    39    44    41
 C     0.30410   0.12300  -4.14670    41    42    34    40
 C    -0.56960   1.18970  -4.00690    42    37    57    41
 C     3.20950   1.79130  -2.56260    43    45    83    44
 C     2.09250   1.69280  -3.40250    44    43    56    40
 C     3.96970   0.72890  -2.16970    45    43    46    90
 C     3.67360  -0.54220  -2.59880    46    45    47    39
 C     4.01100  -1.53450  -1.66640    47    22    87    46
 C    -3.68080  -0.13150  -2.64650    48    49    52    36
 C    -3.97860  -1.25220  -1.90850    49    32    48    61
 C    -2.29500   2.18960  -3.06560    50    51    53    37
 C    -3.29570   2.19430  -2.19190    51    50    52    69
 C    -4.01500   1.06480  -1.99660    52    51    59    48
 C    -1.24140   3.00200  -2.88810    53    50    57    54
 C    -1.12120   3.79570  -1.74070    54    55    53    68
 C     0.16770   4.04540  -1.40660    55    54    58    70
 C     1.11320   2.68970  -3.20960    56    57    58    44
 C    -0.17070   2.42820  -3.54120    57    56    53    42
 C     1.24300   3.58080  -2.13650    58    84    55    56
 C    -4.50690   1.13520  -0.71070    59    60    52    63
 C    -4.75780  -0.00380   0.00550    60    61    59    62
 C    -4.50440  -1.19180  -0.61630    61    60     3    49
 C    -4.49540   0.06140   1.34810    62    60    65     1
 C    -3.98200   2.28910  -0.11950    63    69    64    59
 C    -3.68230   2.36300   1.21770    64    63    65    73
 C    -4.00970   1.20720   1.93770    65    67    62    64
 C    -2.29220   1.57130   3.43720    66    67    15    74
 C    -3.29230   0.81420   3.01110    67    66    65     6
 C    -2.10120   3.72510  -0.72590    68    69    54    72
 C    -3.22050   2.94810  -1.04100    69    63    51    68
 C     0.56240   4.18270  -0.08790    70    75    55    71
 C    -0.31090   4.03190   0.97790    71    70    78    72
 C    -1.71740   3.82130   0.66070    72    73    68    71
 C    -2.54270   3.13490   1.60990    73    74    64    72
 C    -1.89720   2.70900   2.76600    74    79    66    73
 C     1.90580   3.87440  -0.02530    75    84    70    76
 C     2.54260   3.35090   1.09580    76    75    86    77
 C     1.71710   3.15840   2.25000    77    76    81    78
 C     0.31100   3.53260   2.17550    78    79    71    77
 C    -0.55820   2.88140   3.03460    79    74    96    78
 C     3.21380   1.32310   2.82070    80    85    92    81
 C     2.09950   2.10300   3.15760    81    80    97    77
 C     4.01430   2.22570  -0.50390    82    83    90    86
 C     3.29580   2.71460  -1.54130    83    84    82    43
 C     2.29760   3.55200  -1.30670    84    83    58    75
 C     3.97400   1.51340   1.70360    85    80    86    88
 C     3.67770   2.52370   0.82410    86    85    82    76
 C     4.50310  -1.28240  -0.40300    87    89    47    95
 C     4.50080   0.28060   1.31190    88    89    93    85
 C     4.75590   0.00540  -0.00660    89    90    88    87
 C     4.50230   0.99870  -0.90890    90    89    82    45
 C     2.30390  -0.64090   3.72060    91    92    98    26
 C     3.30540  -0.02510   3.10600    92    91    93    80
 C     4.02630  -0.68560   2.17420    93    92    88    94
 C     3.69460  -1.98730   1.77400    94    95    93    27
 C     3.99220  -2.24910   0.46350    95    30    94    87
 C    -0.15730   1.85810   3.87020    96    97    15    79
 C     1.12720   1.43410   3.92930    97    96    98    81
 C     1.24950   0.06460   4.16820    98    91    13    97
