    98
C98-Cs-119                                                                      
 C    -4.56390   1.47710  -0.69220     1     2     7    68
 C    -4.63850   0.30470  -1.41320     2     4     3     1
 C    -4.74990  -0.86080  -0.68590     3     2    10    67
 C    -3.87940   0.23880  -2.55710     4     2     8     5
 C    -3.08730   1.29630  -2.97840     5    23     6     4
 C    -2.97380   2.47530  -2.27200     6     5     7    20
 C    -3.76460   2.52330  -1.12290     7    73     1     6
 C    -3.25380  -0.92340  -2.97260     8    13     9     4
 C    -3.32560  -2.10060  -2.26120     9     8    10    17
 C    -4.12140  -2.01920  -1.11030    10    11     3     9
 C    -3.80520  -2.71640   0.01250    11    12    10    27
 C    -2.74740  -3.51460   0.00740    12    11    18    28
 C    -2.14120  -0.58860  -3.67990    13     8    15    23
 C     0.12590  -0.76060  -4.04200    14    38    15    24
 C    -1.04230  -1.42340  -3.76940    15    14    13    16
 C    -0.99410  -2.64420  -3.04820    16    15    17    40
 C    -2.17810  -2.95180  -2.28280    17    18     9    16
 C    -1.96990  -3.67280  -1.10920    18    42    12    17
 C    -1.36910   3.81230  -1.13500    19    93    72    20
 C    -1.70890   3.13920  -2.30830    20    19    21     6
 C    -0.60600   2.66860  -3.08370    21    20    22    95
 C    -0.83390   1.45680  -3.80420    22    24    23    21
 C    -2.04030   0.80380  -3.69330    23     5    22    13
 C     0.22390   0.62850  -4.07200    24    98    22    14
 C     0.11930  -0.72660   4.03960    25    37    26    46
 C    -1.04700  -1.39280   3.77230    26    25    45    31
 C    -4.13410  -2.01520   1.13450    27    11    67    30
 C    -1.97780  -3.65870   1.13400    28    32    12    29
 C    -2.18240  -2.93310   2.30620    29    28    30    31
 C    -3.32970  -2.08170   2.28070    30    44    27    29
 C    -0.99840  -2.62030   3.06180    31    26    29    35
 C    -0.74870  -4.04980   0.70880    32    28    34    42
 C     1.53360  -3.84580   0.70700    33    62    34    43
 C     0.38150  -3.84520   1.45470    34    32    33    35
 C     0.31680  -3.10410   2.66590    35    34    36    31
 C     1.52810  -2.40970   3.04310    36    37    63    35
 C     1.35530  -1.22150   3.73640    37    25    59    36
 C     1.36020  -1.26120  -3.73550    38    14    87    39
 C     1.53790  -2.44630  -3.03270    39    38    91    40
 C     0.32010  -3.13210  -2.64640    40    41    39    16
 C     0.38400  -3.86990  -1.43190    41    42    43    40
 C    -0.74540  -4.06680  -0.69250    42    18    41    32
 C     1.54180  -3.85840  -0.69760    43    92    41    33
 C    -3.26220  -0.89490   2.97680    44    45    30    65
 C    -2.14570  -0.55690   3.67730    45    44    26    48
 C     0.21050   0.66270   4.06030    46    52    47    25
 C    -0.84380   1.49370   3.78380    47    46    48    49
 C    -2.05090   0.83590   3.67620    48    69    47    45
 C    -0.60770   2.69980   3.05730    49    47    50    55
 C    -1.71170   3.16100   2.27720    50    51    49    70
 C    -1.36930   3.81780   1.09600    51    72    57    50
 C     1.49160   0.99520   3.79080    52    46    54    59
 C     3.01850   2.12670   2.48940    53    54    75    60
 C     1.80870   2.17300   3.13900    54    53    52    55
 C     0.75830   3.01020   2.67740    55    54    56    49
 C     1.02250   3.69790   1.43130    56    57    76    55
 C    -0.08150   4.01690   0.67860    57    51    56    93
 C     3.41070  -0.22910   2.97810    58    59    60    61
 C     2.23850  -0.17090   3.66240    59    58    37    52
 C     3.84190   0.99300   2.45890    60    82    58    53
 C     3.72010  -1.42520   2.28330    61    64    58    63
 C     2.67860  -3.24550   1.12980    62    33    84    63
 C     2.74820  -2.48720   2.29650    63    62    36    61
 C     4.52040  -1.26700   1.13180    64    86    81    61
 C    -3.89830   0.26710   2.55790    65    66    69    44
 C    -4.65950   0.31400   1.41100    66    67    65    68
 C    -4.76530  -0.85820   0.70430    67    66    27     3
 C    -4.57000   1.49070   0.69810    68    66    71     1
 C    -3.10410   1.32900   2.97130    69    48    70    65
 C    -2.97990   2.50190   2.25860    70    69    71    50
 C    -3.77190   2.54160   1.11050    71    73    68    70
 C    -2.16050   3.78690  -0.01760    72    73    51    19
 C    -3.33620   3.17200  -0.01050    73    72     7    71
 C     4.24710   2.19250   0.66350    74    77    75    82
 C     3.24930   2.83890   1.33260    75    74    53    76
 C     2.23470   3.56100   0.70890    76    75    56    79
 C     4.24180   2.17640  -0.68170    77    74    83    78
 C     3.24380   2.81560  -1.35850    78    77    96    79
 C     2.23090   3.55280  -0.74340    79    78    94    76
 C     4.96500  -0.05850  -0.68320    80    83    85    81
 C     4.97410  -0.04950   0.69230    81    82    64    80
 C     4.61930   1.07300   1.35230    82    81    60    74
 C     4.60480   1.05580  -1.36640    83    88    80    77
 C     3.41400  -2.97690   0.00390    84    86    92    62
 C     4.52030  -1.27650  -1.13110    85    86    80    90
 C     4.32430  -2.01640   0.00130    86    84    85    64
 C     2.24620  -0.20440  -3.66860    87    89    38    98
 C     3.84600   0.97000  -2.48420    88    83    89    96
 C     3.42490  -0.26060  -2.98510    89    87    88    90
 C     3.72640  -1.45320  -2.28840    90    89    85    91
 C     2.76020  -2.51780  -2.29090    91    92    39    90
 C     2.68690  -3.26570  -1.11810    92    43    84    91
 C    -0.08140   4.01670  -0.72000    93    19    94    57
 C     1.02030   3.68610  -1.46890    94    93    79    95
 C     0.76360   2.98400  -2.70980    95    97    94    21
 C     3.02490   2.10630  -2.52090    96    97    78    88
 C     1.81640   2.14540  -3.16700    97    96    98    95
 C     1.50120   0.96370  -3.80910    98    24    97    87
