    98
C98-C2v-88                                                                      
 C    -4.48340  -0.68380  -1.17420     1     2    60     8
 C    -4.47970   0.67290  -1.17450     2     1    62     6
 C    -2.52320   4.07180  -0.69000     3     7     4    68
 C    -3.38480   3.13800  -1.13330     4     3    63     5
 C    -3.08190   2.31490  -2.23270     5     6     4    25
 C    -3.67410   1.09530  -2.22120     6     5    13     2
 C    -1.37570   4.26480  -1.35490     7     3    95    24
 C    -3.67860  -1.11960  -2.21910     8     9    13     1
 C    -3.08000  -2.33720  -2.22080     9     8    10    16
 C    -3.38230  -3.15200  -1.11590    10    11    58     9
 C    -2.51580  -4.07600  -0.67280    11    12    10    31
 C    -1.36780  -4.27420  -1.33540    12    11    32    17
 C    -3.10930  -0.01220  -2.81070    13     6     8    14
 C    -1.82740  -0.00770  -3.39730    14    13    26    15
 C    -1.14040  -1.27530  -3.41420    15    14    19    16
 C    -1.80620  -2.43460  -2.85290    16    17     9    15
 C    -1.00250  -3.46910  -2.38580    17    21    12    16
 C     0.98080  -0.00480  -3.58940    18    22    27    19
 C     0.30570  -1.27000  -3.50180    19    18    15    20
 C     1.06570  -2.40440  -2.98210    20    21    38    19
 C     0.36430  -3.43580  -2.41280    21    17    20    33
 C     2.34170  -0.00160  -3.27800    22    91    37    18
 C     1.05990   2.39320  -2.99780    23    28    90    27
 C    -1.01570   3.45730  -2.40490    24    28     7    25
 C    -1.81160   2.41550  -2.86970    25    24     5    26
 C    -1.14060   1.25840  -3.42500    26    14    27    25
 C     0.29970   1.25640  -3.51230    27    18    26    23
 C     0.35510   3.42710  -2.42910    28    24    23    98
 C    -1.37510  -4.26290   1.34930    29    31    30    45
 C    -0.25220  -4.61370   0.68100    30    34    29    32
 C    -2.52600  -4.06640   0.69330    31    29    43    11
 C    -0.24030  -4.62180  -0.67400    32    33    12    30
 C     0.84820  -4.17460  -1.33020    33    32    36    21
 C     0.82830  -4.14450   1.34580    34    30    35    44
 C     2.03230  -3.87060   0.73000    35    34    55    36
 C     2.04560  -3.88440  -0.71970    36    33    39    35
 C     3.03800  -1.11300  -2.82020    37    86    38    22
 C     2.41260  -2.30900  -2.55740    38    37    20    39
 C     2.91500  -3.05240  -1.41250    39    40    36    38
 C     3.94620  -2.48850  -0.67910    40    87    39    54
 C    -3.68850  -1.09660   2.19160    41    42    51    59
 C    -3.08970  -2.31820   2.21120    42    41    43    46
 C    -3.39850  -3.13840   1.11020    43    31    58    42
 C     0.34670  -3.41200   2.43330    44    45    47    34
 C    -1.02070  -3.45270   2.39840    45    44    29    46
 C    -1.82220  -2.41120   2.85730    46    45    42    49
 C     1.04770  -2.38000   2.99990    47    44    56    48
 C     0.28530  -1.24380   3.51030    48    53    49    47
 C    -1.15910  -1.25030   3.41400    49    50    48    46
 C    -1.84590   0.01540   3.38320    50    51    49    74
 C    -3.12270   0.01440   2.78300    51    64    41    50
 C     2.32350   0.01170   3.28590    52    57    76    53
 C     0.96220   0.01830   3.59290    53    52    73    48
 C     3.94320  -2.47870   0.71630    54    82    55    40
 C     2.89430  -3.03620   1.43780    55    54    35    56
 C     2.39470  -2.28550   2.57870    56    57    47    55
 C     3.02970  -1.09380   2.83530    57    83    56    52
 C    -4.05670  -2.63990  -0.00810    58    60    43    10
 C    -4.50350  -0.67250   1.14870    59    61    60    41
 C    -4.60620  -1.41130  -0.00710    60    58    59     1
 C    -4.49210   0.68260   1.15160    61    59    62    64
 C    -4.59270   1.41630  -0.01420    62    63    61     2
 C    -4.04160   2.64350  -0.00900    63    62    66     4
 C    -3.69210   1.12250   2.19700    64    65    51    61
 C    -3.09800   2.34410   2.20700    65    64    66    72
 C    -3.39540   3.16550   1.10480    66    68    63    65
 C    -1.38250   4.29110   1.33320    67    68    94    69
 C    -2.53070   4.09550   0.67720    68    67    66     3
 C    -1.02650   3.47880   2.38200    69    70    67    72
 C     0.34320   3.43920   2.40540    70    69    71    93
 C     1.04380   2.40780   2.98230    71    70    77    73
 C    -1.82770   2.43820   2.84930    72    69    65    74
 C     0.28130   1.27770   3.50460    73    53    74    71
 C    -1.15940   1.28190   3.41080    74    50    73    72
 C     4.12470   0.68810   2.15410    75    78    83    76
 C     3.01870   1.12280   2.82660    76    75    77    52
 C     2.39080   2.31670   2.55830    77    76    71    80
 C     4.58860   1.37480   1.08590    78    75    79    84
 C     3.93020   2.50030   0.68920    79    78    80    92
 C     2.89070   3.06310   1.41530    80    79    96    77
 C     5.05950  -0.68150   0.00770    81    87    82    84
 C     4.61170  -1.35550   1.10580    82    83    54    81
 C     4.13620  -0.66690   2.16390    83    82    75    57
 C     5.04950   0.68560   0.00210    84    88    78    81
 C     4.14030   0.67790  -2.14480    85    88    86    91
 C     4.14220  -0.68020  -2.14310    86    87    85    37
 C     4.61340  -1.36610  -1.07870    87    86    81    40
 C     4.60410   1.37680  -1.08140    88    85    84    92
 C     2.90460   3.06170  -1.43660    89    92    97    90
 C     2.40780   2.30300  -2.57350    90    91    23    89
 C     3.03910   1.10910  -2.82730    91    85    90    22
 C     3.94290   2.50720  -0.70560    92    88    89    79
 C     0.82920   4.17780   1.32190    93    94    96    70
 C    -0.25920   4.63430   0.66090    94    93    67    95
 C    -0.25020   4.62410  -0.69600    95    98     7    94
 C     2.03080   3.89540   0.70930    96    93    80    97
 C     2.03520   3.89710  -0.74140    97    98    89    96
 C     0.83790   4.17610  -1.35230    98    95    97    28
