    98
C98-C2-176                                                                      
 C    -2.55380   0.40780  -3.40040     1     6     2    59
 C    -3.36530  -0.53870  -2.81840     2     1     3    10
 C    -4.21740   0.00060  -1.85700     3     4    58     2
 C    -4.57990  -0.71380  -0.75420     4     5     3    26
 C    -4.16900  -1.96880  -0.62710     5     4    14    11
 C    -1.33810   0.07750  -3.89410     6     1     8    74
 C     0.53060  -1.25030  -3.85360     7     8    19    75
 C    -0.83610  -1.21210  -3.81660     8     7     6     9
 C    -1.56620  -2.23890  -3.16030     9     8    10    21
 C    -2.87460  -1.87150  -2.68090    10    11     2     9
 C    -3.35600  -2.56300  -1.57270    11    23     5    10
 C    -2.90710  -1.93680   2.64960    12    18    13    31
 C    -3.88820  -1.63050   1.73300    13    12    25    14
 C    -3.88330  -2.46450   0.60260    14     5    15    13
 C    -2.98670  -3.47950   0.40900    15    17    14    23
 C    -0.90910  -4.32990   0.97230    16    17    46    24
 C    -2.09580  -3.81200   1.37920    17    16    15    18
 C    -2.05820  -3.00960   2.50050    18    45    12    17
 C     1.25920  -2.26280  -3.28850    19     7    93    20
 C     0.65830  -3.30020  -2.57960    20    19    97    21
 C    -0.79510  -3.30230  -2.51070    21    22    20     9
 C    -1.39480  -3.93530  -1.37920    22    23    24    21
 C    -2.63990  -3.53360  -0.94290    23    11    22    15
 C    -0.56020  -4.41810  -0.38240    24    98    22    16
 C    -4.25610  -0.28130   1.61820    25    13    26    28
 C    -4.67810   0.11680   0.33010    26    27     4    25
 C    -4.50820   1.36930  -0.15720    27    30    26    58
 C    -3.59880   0.72010   2.41250    28    29    32    25
 C    -3.54150   2.00020   1.87390    29    36    30    28
 C    -3.98490   2.31880   0.60130    30    27    49    29
 C    -2.22650  -0.97540   3.38190    31    32    12    38
 C    -2.51700   0.37700   3.29440    32    31    28    34
 C    -0.12660   0.71940   3.91210    33    37    42    34
 C    -1.43300   1.27850   3.59420    34    35    32    33
 C    -1.48150   2.59620   3.02530    35    36    53    34
 C    -2.54380   2.88300   2.17080    36    29    50    35
 C     0.99190   1.50720   3.66570    37    52    44    33
 C    -0.96650  -1.47870   3.68150    38    45    42    31
 C     2.55320  -2.85680   2.18200    39    85    92    40
 C     1.49560  -2.56330   3.04390    40    39    47    41
 C     1.45160  -1.23960   3.60300    41    40    43    42
 C     0.14580  -0.68110   3.91890    42    38    33    41
 C     2.53710  -0.34080   3.28990    43    44    86    41
 C     2.25470   1.01170   3.36810    44    43    81    37
 C    -0.87860  -2.74330   3.15640    45    47    38    18
 C     0.24400  -4.14910   1.68810    46    90    16    47
 C     0.31760  -3.30400   2.80280    47    45    46    40
 C    -1.25320   4.28040   0.79820    48    50    51    54
 C    -3.21400   3.30370   0.06010    49    50    30    56
 C    -2.41050   3.70680   1.06560    50    48    49    36
 C    -0.22610   4.16750   1.66660    51    48    68    53
 C     0.90610   2.76910   3.12810    52    53    37    66
 C    -0.29620   3.32300   2.78390    53    52    51    35
 C    -0.78890   4.37070  -0.49280    54    60    48    55
 C    -1.49030   3.83690  -1.57050    55    54    64    56
 C    -2.80360   3.31850  -1.29290    56    57    49    55
 C    -3.33390   2.26660  -2.05930    57    59    58    56
 C    -4.19540   1.33520  -1.49700    58    27     3    57
 C    -2.52470   1.75490  -3.04170    59    57    65     1
 C     0.56840   4.41480  -0.40680    60    54    62    68
 C     2.63160   3.51510  -0.96560    61    70    62    69
 C     1.38470   3.91970  -1.41200    62    61    60    63
 C     0.78430   3.28530  -2.53930    63    62    64    72
 C    -0.66550   3.27850  -2.60250    64    65    55    63
 C    -1.26190   2.23780  -3.30290    65    74    59    64
 C     2.08600   3.04500   2.47210    66    81    52    67
 C     2.10750   3.84280   1.34510    67    68    69    66
 C     0.92420   4.35510   0.94220    68    67    51    60
 C     2.99940   3.48200   0.38460    69    67    83    61
 C     3.34620   2.54720  -1.60660    70    61    76    71
 C     2.86110   1.85100  -2.70990    71    70    79    72
 C     1.55030   2.21720  -3.18380    72    73    71    63
 C     0.82350   1.18150  -3.83160    73    74    75    72
 C    -0.54060   1.22240  -3.86920    74    73    65     6
 C     1.33090  -0.10590  -3.89540    75    80    73     7
 C     4.16600   1.96940  -0.65790    76    77    83    70
 C     4.57550   0.71240  -0.78210    77    76    78    88
 C     4.20860  -0.01610  -1.87960    78    77    94    79
 C     3.35340   0.51830  -2.84140    79    80    78    71
 C     2.55040  -0.43620  -3.41390    80    75    79    93
 C     2.93160   1.96990   2.63220    81    66    82    44
 C     3.90890   1.65220   1.71420    82    81    83    89
 C     3.90260   2.47290   0.57600    83    76    69    82
 C     3.97970  -2.29380   0.60680    84    87    91    85
 C     3.54890  -1.97410   1.88340    85    39    84    86
 C     3.61700  -0.68840   2.40760    86    85    43    89
 C     4.50210  -1.35280  -0.16750    87    84    88    94
 C     4.68940  -0.10100   0.31440    88    87    77    89
 C     4.27600   0.30220   1.59900    89    82    88    86
 C     1.26360  -4.27580   0.82060    90    92    46    98
 C     3.21390  -3.28930   0.06880    91    92    84    96
 C     2.41720  -3.68960   1.08230    92    90    91    39
 C     2.52720  -1.77840  -3.04710    93    95    19    80
 C     4.18800  -1.34580  -1.50640    94    87    78    95
 C     3.32840  -2.28870  -2.05930    95    93    94    96
 C     2.80030  -3.33150  -1.28340    96    95    91    97
 C     1.48950  -3.85670  -1.54920    97    98    20    96
 C     0.79860  -4.38510  -0.46920    98    24    90    97
