    98
C98-C1-164                                                                      
 C     0.64050  -3.88130  -1.81950     1     7     2    66
 C    -0.50150  -3.39870  -2.43470     2     1    64    10
 C    -1.50180  -1.38560  -3.40750     3     4    10    14
 C    -2.70490  -1.81190  -2.79670     4     5    65     3
 C    -3.70740  -0.97100  -2.39960     5     6     4    38
 C    -3.57720   0.33120  -2.61540     6     5    21    15
 C     1.88020  -3.37090  -2.01290     7     1    75     8
 C     2.11970  -2.25830  -2.81740     8     7    17     9
 C     0.96130  -1.61930  -3.41880     9    10    12     8
 C    -0.34670  -2.21140  -3.25450    10     3     9     2
 C     2.26630   0.41170  -3.34100    11    31    16    12
 C     1.04850  -0.19460  -3.66950    12    11    13     9
 C    -0.10780   0.66590  -3.71540    13    14    12    33
 C    -1.37500   0.03070  -3.62470    14    15    13     3
 C    -2.45330   0.83170  -3.21110    15     6    35    14
 C     3.35030  -0.22690  -2.77400    16    17    11    98
 C     3.30560  -1.55690  -2.47710    17    16    18     8
 C     4.07780  -1.91240  -1.35250    18    74    95    17
 C    -4.49610   1.66210   0.48100    19    24    39    20
 C    -4.75300   0.81470  -0.58560    20    19    21    37
 C    -4.12230   1.23790  -1.75610    21     6    22    20
 C    -3.36340   2.38060  -1.87340    22    23    21    35
 C    -3.19160   3.26150  -0.83390    23    22    24    29
 C    -3.77820   2.82690   0.35880    24    26    19    23
 C    -2.02600   3.71050   1.59830    25    26    30    53
 C    -3.13150   3.00870   1.55210    26    25    42    24
 C     0.29550   4.16780  -1.48250    27    36    87    28
 C    -1.00460   3.83160  -1.81420    28    27    34    29
 C    -2.00540   4.00160  -0.79860    29    23    30    28
 C    -1.50140   4.29180   0.48510    30    88    25    29
 C     2.37500   1.74180  -3.00440    31    32    11    91
 C     1.28170   2.57580  -2.96850    32    31    36    33
 C     0.00460   2.08750  -3.33490    33    32    34    13
 C    -1.13950   2.79580  -2.79910    34    35    28    33
 C    -2.33850   2.13410  -2.78750    35    34    15    22
 C     1.39940   3.61320  -2.05050    36    27    32    94
 C    -4.84530  -0.56850  -0.32380    37    38    41    20
 C    -4.35380  -1.44400  -1.28820    38    45     5    37
 C    -4.21940   1.16250   1.73720    39    40    42    19
 C    -4.23350  -0.13950   1.95780    40    39    41    57
 C    -4.59480  -1.01490   0.97860    41    40    43    37
 C    -3.30000   1.93960   2.37110    42    26    39    55
 C    -3.95850  -2.18960   1.26860    43    41    44    47
 C    -3.59700  -3.06960   0.28390    44    46    43    45
 C    -3.76980  -2.64920  -1.01830    45    38    44    65
 C    -2.50670  -3.82960   0.54340    46    44    63    50
 C    -3.14490  -1.98700   2.39050    47    57    49    43
 C    -0.89270  -2.07010   3.28950    48    49    52    60
 C    -1.99180  -2.69680   2.62380    49    47    50    48
 C    -1.74060  -3.70100   1.70250    50    68    49    46
 C     1.49980  -1.83980   3.27860    51    52    71    61
 C     0.40690  -2.64900   3.04870    52    51    67    48
 C    -1.01970   3.35640   2.47260    53    80    25    54
 C    -1.05740   2.19280   3.25560    54    53    58    55
 C    -2.26430   1.43860   3.20490    55    42    56    54
 C    -2.24420   0.03000   3.40910    56    57    55    60
 C    -3.28290  -0.69310   2.79290    57    47    40    56
 C     0.19580   1.58790   3.55170    58    54    59    82
 C     0.17190   0.15700   3.78990    59    61    60    58
 C    -1.01540  -0.65150   3.67240    60    56    59    48
 C     1.38420  -0.50210   3.62850    61    85    51    59
 C    -0.47500  -4.50960   0.12590    62    66    63    68
 C    -1.64880  -4.22240  -0.45900    63    62    46    64
 C    -1.71430  -3.69040  -1.75630    64    65    63     2
 C    -2.79430  -2.90860  -1.97670    65    64     4    45
 C     0.64640  -4.43470  -0.55080    66    62    69     1
 C     0.64420  -3.71470   2.11290    67    68    70    52
 C    -0.48930  -4.15300   1.45420    68    50    62    67
 C     1.81650  -4.19070   0.06130    69    66    75    70
 C     1.89730  -3.82770   1.42750    70    72    69    67
 C     2.73800  -2.02810   2.69280    71    76    72    51
 C     2.97570  -2.99550   1.73860    72    71    70    73
 C     3.89370  -2.61420   0.75390    73    74    79    72
 C     3.67450  -2.93250  -0.55720    74    75    18    73
 C     2.63650  -3.66790  -0.88950    75    74    69     7
 C     3.39400  -0.82000   2.69820    76    71    78    85
 C     4.42880   0.83320   1.44390    77    78    96    83
 C     4.34820  -0.49470   1.75750    78    77    79    76
 C     4.55770  -1.41120   0.75390    79    73    78    95
 C     0.12600   3.89160   1.96600    80    53    81    88
 C     1.38210   3.40020   2.24480    81    80    90    82
 C     1.44070   2.23280   3.09140    82    84    81    58
 C     3.61470   1.78810   2.04340    83    89    77    84
 C     2.61920   1.45830   2.97350    84    85    83    82
 C     2.55820   0.11920   3.27060    85    84    61    76
 C     1.96090   4.17230   0.02310    86    87    94    90
 C     0.68450   4.52420  -0.20880    87    88    86    27
 C    -0.20480   4.48550   0.75990    88    87    30    80
 C     3.46430   2.82730   1.17500    89    90    83    92
 C     2.38110   3.64990   1.25500    90    89    86    81
 C     3.49300   1.90270  -2.19280    91    98    93    31
 C     4.08960   2.47210  -0.01300    92    96    93    89
 C     3.52560   2.86510  -1.21230    93    94    91    92
 C     2.47260   3.70760  -1.16870    94    93    86    36
 C     4.72820  -0.98770  -0.55970    95    97    18    79
 C     4.68600   1.25230   0.14570    96    92    97    77
 C     4.76760   0.33570  -0.88970    97    95    98    96
 C     4.09520   0.68740  -2.04460    98    91    97    16
