    98
C98-C1-234                                                                      
 C     3.70060   1.78590   2.02890     1     2     6    60
 C     3.95960   0.50680   2.19910     2     1     3    20
 C     4.53210  -0.22420   1.20010     3     4     2    59
 C     4.14970  -1.49980   1.46920     4     5     3    10
 C     4.05760  -2.37580   0.47150     5     4     8    56
 C     2.63450   2.34220   2.66430     6    65     1    18
 C     1.07620  -4.07260   1.32910     7    15     9    25
 C     3.12180  -3.36150   0.54800     8     5    27     9
 C     2.25860  -3.47260   1.63430     9     7     8    12
 C     3.26280  -1.53940   2.53340    10    20    12     4
 C     1.05910  -2.08630   3.33730    11    14    12    23
 C     2.26830  -2.48350   2.66460    12    10     9    11
 C    -1.33260  -2.31750   3.22390    13    14    24    36
 C    -0.08590  -2.86390   3.03970    14    13    15    11
 C    -0.04720  -3.84330   2.04210    15     7    38    14
 C     0.12550   3.29140   2.71040    16    93    64    17
 C     0.35520   2.11970   3.45090    17    16    21    18
 C     1.68850   1.61460   3.43110    18     6    19    17
 C     1.93960   0.22480   3.58380    19    20    18    23
 C     3.11630  -0.25990   2.98370    20    10     2    19
 C    -0.76790   1.26690   3.66050    21    17    22    95
 C    -0.46940  -0.13850   3.86480    22    24    23    21
 C     0.86850  -0.69240   3.77830    23    19    22    11
 C    -1.52310  -1.01220   3.61470    24    13    98    22
 C     0.69330  -4.40030   0.02460    25    30    26     7
 C     1.45930  -4.09530  -1.06390    26    25    27    34
 C     2.73060  -3.64060  -0.75100    27    28     8    26
 C     3.42100  -2.77940  -1.54910    28    29    27    56
 C     2.80490  -2.30230  -2.63320    29    28    42    35
 C    -0.66030  -4.39490  -0.02860    30    25    38    32
 C    -2.63810  -3.53970  -0.89020    31    49    32    39
 C    -1.36780  -4.00290  -1.16570    32    31    30    33
 C    -0.63240  -3.49930  -2.28470    33    34    32    51
 C     0.79010  -3.60340  -2.22470    34    35    26    33
 C     1.52730  -2.68520  -2.95860    35    53    29    34
 C    -2.44880  -2.72480   2.51080    36    89    37    13
 C    -2.35580  -3.63010   1.47710    37    38    39    36
 C    -1.13530  -4.15140   1.25300    38    37    15    30
 C    -3.15880  -3.39020   0.39180    39    92    37    31
 C     3.52900   1.14500  -2.43640    40    57    41    48
 C     3.89420  -0.17870  -2.34130    41    40    42    55
 C     3.02640  -1.02480  -3.02840    42    29    43    41
 C     1.87230  -0.60460  -3.66570    43    47    53    42
 C    -2.11920   0.20250  -3.53830    44    70    45    54
 C    -0.81290  -0.06130  -3.87800    45    44    52    46
 C     0.12380   1.05020  -3.82540    46    47    45    72
 C     1.49100   0.71550  -3.72100    47    43    48    46
 C     2.38280   1.57740  -3.10950    48    74    47    40
 C    -3.24800  -2.61200  -1.68390    49    31    50    85
 C    -2.57360  -2.03030  -2.75160    50    54    49    51
 C    -1.24990  -2.42820  -3.07120    51    50    52    33
 C    -0.40150  -1.43310  -3.70080    52    53    45    51
 C     0.95150  -1.63560  -3.62910    53    52    35    43
 C    -2.98320  -0.73720  -3.02260    54    44    50    88
 C     4.53490  -0.64110  -1.16050    55    56    41    59
 C     4.25400  -1.97070  -0.82050    56     5    28    55
 C     3.80280   2.05140  -1.45140    57    40    58    61
 C     4.40290   1.65860  -0.26120    58    60    57    59
 C     4.74160   0.29450  -0.10200    59    58     3    55
 C     3.94240   2.39530   0.82100    60    63     1    58
 C     2.84940   3.06450  -1.54630    61    62    74    57
 C     2.44780   3.81300  -0.46260    62    61    63    68
 C     3.03690   3.41750   0.73490    63    60    65    62
 C     1.08910   3.88120   1.91710    64    65    69    16
 C     2.30950   3.41210   1.89530    65    64     6    63
 C    -1.10630   4.09740  -1.29490    66    75    77    67
 C     0.25570   4.06310  -1.56720    67    66    73    68
 C     1.13920   4.32280  -0.46420    68    62    69    67
 C     0.52130   4.41210   0.80040    69    78    64    68
 C    -2.54360   1.44510  -3.13310    70    44    71    81
 C    -1.67180   2.50700  -2.98200    71    70    75    72
 C    -0.30380   2.35100  -3.31610    72    71    73    46
 C     0.65880   3.19790  -2.63340    73    74    67    72
 C     1.97120   2.76470  -2.57220    74    48    61    73
 C    -2.04710   3.39280  -1.98220    75    66    71    84
 C    -2.80420   3.62660   0.09430    76    77    84    80
 C    -1.61660   4.25170  -0.02250    77    78    76    66
 C    -0.80000   4.32110   1.01010    78    77    69    93
 C    -4.04410   1.92580   1.08380    79    96    80    82
 C    -3.16890   2.95950   1.27790    80    79    76    94
 C    -3.67970   1.26610  -2.35490    81    88    83    70
 C    -4.48600   1.53210  -0.17950    82    86    83    79
 C    -3.97840   2.11850  -1.31870    83    84    81    82
 C    -3.14750   3.17100  -1.15800    84    83    76    75
 C    -4.18840  -1.93260  -0.91010    85    87    92    49
 C    -4.77990   0.19430  -0.11070    86    82    90    87
 C    -4.55200  -0.64420  -1.19570    87    85    88    86
 C    -3.95480  -0.07460  -2.29220    88    81    87    54
 C    -3.34660  -1.69590   2.49200    89    36    91    98
 C    -4.56670  -0.22950   1.18590    90    91    86    96
 C    -4.23290  -1.52680   1.45180    91    90    89    92
 C    -4.08990  -2.39140   0.38310    92    39    85    91
 C    -1.07840   3.61710   2.16800    93    16    94    78
 C    -2.21690   2.86540   2.34040    94    93    80    95
 C    -2.09390   1.67080   3.13960    95    97    94    21
 C    -4.04520   0.83760   1.90570    96    79    90    97
 C    -3.08070   0.67840   2.90940    97    98    96    95
 C    -2.77300  -0.63120   3.17660    98    97    24    89
