    98
C98-Cs-259                                                                      
 C    -3.39570   3.05020  -0.68260     1     6     2    61
 C    -3.49300   2.28990  -1.82360     2     1     3     9
 C    -4.24210   1.12570  -1.66750     3     4    60     2
 C    -3.93430   0.00150  -2.36970     4     5    34     3
 C    -2.89240  -0.00490  -3.19970     5     4    18    10
 C    -2.32490   3.86290  -0.46800     6     1    66     7
 C    -1.24510   4.00780  -1.34840     7     6    14     8
 C    -1.23780   3.15680  -2.51230     8     9     7    12
 C    -2.37740   2.31870  -2.71560     9    10     2     8
 C    -2.13260   1.11950  -3.38430    10     5    27     9
 C     1.17910   3.27430  -2.45200    11    28    13    12
 C     0.04560   2.73340  -3.03780    12    11    26     8
 C     1.14970   4.10120  -1.34830    13    14    98    11
 C    -0.03680   4.42700  -0.74900    14    13    15     7
 C     0.05010   4.49510   0.65160    15    65    95    14
 C     1.17760  -3.27470  -2.44560    16    38    25    17
 C     0.04270  -2.73760  -3.03250    17    16    22    32
 C    -2.13760  -1.12870  -3.38480    18     5    20    19
 C    -2.37660  -2.32800  -2.71380    19    18    32    33
 C    -0.89580  -0.69440  -3.78300    20    22    18    27
 C     1.48760  -0.73350  -3.62140    21    24    22    30
 C     0.24050  -1.45140  -3.65120    22    20    21    17
 C     3.64300  -0.68170  -2.48000    23    31    24    47
 C     2.59620  -1.40370  -3.03460    24    25    23    21
 C     2.40580  -2.65080  -2.46200    25    16    24    49
 C     0.24520   1.44750  -3.65540    26    27    30    12
 C    -0.89250   0.69470  -3.78820    27    26    10    20
 C     2.40760   2.64900  -2.46860    28    11    29    91
 C     2.60410   1.39900  -3.04010    29    31    28    30
 C     1.49420   0.73200  -3.62260    30    29    26    21
 C     3.64810   0.68060  -2.48340    31    23    29    94
 C    -1.23970  -3.16420  -2.50330    32    19    35    17
 C    -3.48850  -2.29320  -1.81540    33    37    34    19
 C    -4.23380  -1.12180  -1.66250    34     4    53    33
 C    -1.24990  -4.00960  -1.33430    35    36    39    32
 C    -2.33040  -3.85870  -0.45870    36    37    42    35
 C    -3.40150  -3.04820  -0.67450    37    36    33    51
 C     1.14700  -4.09350  -1.33830    38    39    16    43
 C    -0.03820  -4.41880  -0.73930    39    38    40    35
 C     0.04460  -4.47310   0.66060    40    41    46    39
 C    -0.99270  -4.12880   1.44140    41    42    40    67
 C    -2.17470  -3.89960   0.90920    42    41    57    36
 C     2.33100  -3.92680  -0.65260    43    49    38    45
 C     3.20430  -3.04840   1.33160    44    45    50    86
 C     2.35780  -3.93160   0.72920    45    46    44    43
 C     1.18200  -4.14860   1.35140    46    45    40    75
 C     4.37320  -1.11550  -1.37730    47    48    87    23
 C     4.09380  -2.30450  -0.76350    48    47    49    50
 C     3.14190  -3.08680  -1.36430    49    43    48    25
 C     4.10450  -2.29680   0.62520    50    44    90    48
 C    -3.89200  -2.59260   0.55290    51    52    57    37
 C    -4.53140  -1.40040   0.69060    52    51    53    54
 C    -4.76390  -0.67920  -0.46020    53    52    60    34
 C    -4.21270  -0.66380   1.81840    54    58    52    55
 C    -3.23790  -1.08510   2.71800    55    56    71    54
 C    -2.61690  -2.29050   2.61860    56    55    57    68
 C    -3.03060  -3.06030   1.51820    57    42    51    56
 C    -4.21890   0.69820   1.81690    58    54    59    62
 C    -4.54220   1.42100   0.68130    59    61    60    58
 C    -4.77510   0.70070  -0.46230    60    59    53     3
 C    -3.88240   2.60510   0.55100    61    59    64     1
 C    -3.23950   1.11080   2.71600    62    63    71    58
 C    -2.61400   2.31300   2.61120    63    62    64    73
 C    -3.01960   3.08160   1.50550    64    66    61    63
 C    -0.98750   4.15400   1.43330    65    66    15    74
 C    -2.16580   3.92540   0.90000    66    65    64     6
 C    -0.55270  -3.41360   2.53580    67    75    41    68
 C    -1.29070  -2.39060   3.11480    68    67    56    69
 C    -0.55750  -1.24240   3.63240    69    70    77    68
 C    -1.25310   0.01390   3.67740    70    71    69    72
 C    -2.59570   0.01350   3.24460    71    55    62    70
 C    -0.55670   1.27120   3.62410    72    70    80    73
 C    -1.28630   2.41880   3.10140    73    74    63    72
 C    -0.54170   3.43660   2.52230    74    84    65    73
 C     0.79550  -3.42540   2.48390    75    67    76    46
 C     1.54890  -2.40060   3.01700    76    75    86    77
 C     0.89410  -1.24290   3.57460    77    76    79    69
 C     2.95620   0.00640   2.98080    78    85    81    79
 C     1.62190   0.01400   3.54950    79    78    80    77
 C     0.89550   1.27060   3.56460    80    83    79    72
 C     3.48880   1.15660   2.41440    81    82    78    88
 C     2.80410   2.32400   2.42060    82    81    83    96
 C     1.55050   2.42450   2.99890    83    84    82    80
 C     0.80370   3.45220   2.46370    84    74    83    95
 C     3.49720  -1.14220   2.42660    85    86    78    90
 C     2.80300  -2.30050   2.43960    86    85    76    44
 C     4.75780   0.00370  -0.67410    87    94    47    89
 C     4.34930   1.16710   1.31180    88    89    92    81
 C     4.74500   0.00220   0.71740    89    90    88    87
 C     4.36130  -1.14990   1.32870    90    89    50    85
 C     3.13950   3.09530  -1.37140    91    98    93    28
 C     4.10740   2.31700   0.60670    92    96    88    93
 C     4.10060   2.30870  -0.78360    93    94    91    92
 C     4.38000   1.11870  -1.38510    94    93    87    31
 C     1.19690   4.18210   1.33610    95    97    15    84
 C     3.21650   3.07640   1.31750    96    97    92    82
 C     2.37320   3.95900   0.71310    97    95    96    98
 C     2.33710   3.94480  -0.66490    98    91    97    13
