    98
C98-C1-86                                                                       
 C    -2.37300   2.79070  -2.37140     1     2     6    66
 C    -2.87240   3.20080  -1.17490     2     1     3     9
 C    -3.92880   2.41650  -0.70220     3     4     2    63
 C    -4.17380   2.28580   0.61520     4     3     5    19
 C    -3.33890   2.88450   1.49690     5    20     4    10
 C    -1.06390   3.01530  -2.74140     6     1    68     7
 C    -0.14690   3.66390  -1.93000     7     6    15     8
 C    -0.59840   4.04520  -0.60550     8     9    12     7
 C    -1.96660   3.81790  -0.26540     9    10     2     8
 C    -2.25320   3.60760   1.08070    10     5    26     9
 C     1.69790   3.89310   0.09040    11    12    16    27
 C     0.38570   4.05790   0.45440    12    11    25     8
 C     2.79490   1.69600  -2.97330    13    96    14    76
 C     1.58000   2.34650  -3.17670    14    13    69    15
 C     1.20710   3.38220  -2.22300    15    16     7    14
 C     2.11340   3.62460  -1.20650    16    97    15    11
 C    -4.33470   0.43910   2.02010    17    19    34    18
 C    -3.50120   1.04280   2.91510    18    20    22    17
 C    -4.66740   1.04120   0.86120    19    17     4    42
 C    -3.00730   2.26490   2.65270    20    18    21     5
 C    -1.74100   2.58630   3.00190    21    20    24    26
 C    -2.70750   0.11690   3.51060    22    18    35    23
 C    -1.41150   0.38540   3.94360    23    22    37    24
 C    -0.89780   1.72390   3.69010    24    21    30    23
 C     0.06380   3.67560   1.80110    25    26    12    29
 C    -1.26770   3.47780   2.04730    26    25    10    21
 C     2.66450   3.39160   0.95160    27    90    11    28
 C     2.35660   2.86310   2.20890    28    27    29    93
 C     1.00770   2.98600   2.65120    29    28    25    30
 C     0.47680   1.97560   3.55080    30    31    24    29
 C     1.29570   0.89500   3.82790    31    94    30    36
 C    -3.37070  -2.75970   0.91340    32    33    43    40
 C    -4.17290  -1.65690   0.88880    33    32    34    41
 C    -4.06680  -0.88510   2.04370    34    17    33    35
 C    -3.08370  -1.11060   3.01780    35    39    22    34
 C     0.80750  -0.39930   4.01060    36    56    37    31
 C    -0.52990  -0.72550   4.00000    37    36    23    38
 C    -0.88960  -2.04150   3.50040    38    39    37    58
 C    -2.20910  -2.16530   2.97740    39    35    40    38
 C    -2.44510  -3.03600   1.93490    40    60    39    32
 C    -4.46510  -1.04330  -0.37610    41    42    33    45
 C    -4.70890   0.33870  -0.31480    42    19    63    41
 C    -2.90210  -3.33360  -0.23180    43    32    48    44
 C    -3.09820  -2.78260  -1.50850    44    43    51    45
 C    -3.87730  -1.57320  -1.58480    45    44    46    41
 C    -3.53840  -0.64480  -2.63730    46    47    62    45
 C    -2.46540  -0.98910  -3.47280    47    52    64    46
 C    -1.78170  -4.03920   0.11880    48    49    43    60
 C    -0.81920  -4.26720  -0.76680    49    48    50    53
 C    -0.92640  -3.77980  -2.01960    50    49    51    71
 C    -2.03500  -3.05050  -2.42120    51    52    50    44
 C    -1.72820  -2.12700  -3.37000    52    51    47    73
 C     0.47110  -4.33550  -0.37010    53    49    55    77
 C     2.10490  -3.67910   1.09240    54    61    55    85
 C     0.83830  -4.15590   0.95340    55    54    53    59
 C     1.79440  -1.26810   3.63060    56    36    86    57
 C     1.50990  -2.51310   3.09640    57    56    61    58
 C     0.15510  -2.92030   2.99030    58    57    59    38
 C    -0.15850  -3.82230   1.91400    59    60    55    58
 C    -1.46130  -3.82140   1.43670    60    40    48    59
 C     2.46420  -2.92770   2.16680    61    54    89    57
 C    -3.73880   0.75390  -2.45080    62    63    66    46
 C    -4.31520   1.20950  -1.30850    63    62    42     3
 C    -1.61510  -0.06150  -4.02060    64    65    67    47
 C    -1.78020   1.22540  -3.76420    65    64    66    68
 C    -2.80830   1.63470  -3.00400    66    65     1    62
 C    -0.35750  -0.57440  -4.17680    67    73    64    70
 C    -0.69390   2.03410  -3.64380    68    65     6    69
 C     0.60600   1.59310  -3.82940    69    68    14    70
 C     0.80270   0.18800  -4.10210    70    67    75    69
 C     0.38010  -3.53400  -2.43390    71    77    72    50
 C     0.69890  -2.53170  -3.32010    72    71    73    74
 C    -0.41610  -1.87930  -3.80270    73    67    72    52
 C     1.95450  -1.86010  -3.22270    74    72    75    79
 C     1.98360  -0.48510  -3.67190    75    76    70    74
 C     2.97540   0.32360  -3.17180    76    75    82    13
 C     1.24250  -3.89690  -1.43980    77    71    78    53
 C     2.47810  -3.32120  -1.29620    78    77    85    79
 C     2.90760  -2.29270  -2.19650    79    78    81    74
 C     4.39010  -1.46520  -0.35700    80    84    83    81
 C     3.90780  -1.38470  -1.71180    81    82    79    80
 C     3.93550  -0.10620  -2.27290    82    95    76    81
 C     4.79260  -0.28760   0.29480    83    98    87    80
 C     3.83270  -2.41180   0.47220    84    85    80    89
 C     2.92680  -3.31170   0.01740    85    84    78    54
 C     2.90840  -0.52660   3.28510    86    88    94    56
 C     4.48410  -0.04820   1.63750    87    88    92    83
 C     3.84350  -0.98450   2.38900    88    89    87    86
 C     3.57060  -2.18680   1.81650    89    88    61    84
 C     3.68330   2.91340   0.16640    90    91    97    27
 C     4.43920   1.87370   0.57810    91    92    90    98
 C     4.19920   1.30710   1.77910    92    91    87    93
 C     3.18310   1.77600   2.61960    93    94    92    28
 C     2.58840   0.81180   3.39260    94    31    93    86
 C     4.38890   1.00310  -1.60770    95    98    96    82
 C     3.67680   2.08070  -2.01740    96    97    95    13
 C     3.33100   3.03830  -1.13570    97    96    16    90
 C     4.80280   0.91060  -0.32890    98    95    83    91
