    98
C98-C2-252                                                                      
 C     2.66150  -2.45680   2.44860     1     7    61     2
 C     1.48740  -3.20560   2.48570     2     1    59     3
 C     0.36360  -2.64290   3.19680     3     4     2    10
 C    -0.92070  -3.09250   2.79780     4     6     5     3
 C    -1.05120  -3.93480   1.69120     5    60    15     4
 C    -2.01300  -2.28110   3.01960     6    12     4    13
 C     2.78030  -1.23730   3.03950     7     1     9    67
 C     1.77080   0.71590   3.71200     8     9    21    68
 C     1.71700  -0.65820   3.70620     9     8     7    10
 C     0.47040  -1.31500   3.79630    10     9    11     3
 C    -0.70150  -0.46670   3.92030    11    12    22    10
 C    -1.90760  -1.01710   3.54760    12     6    25    11
 C    -3.15010  -2.31420   2.23360    13    17    14     6
 C    -3.21760  -3.09560   1.10370    14    15    16    13
 C    -2.14380  -3.87370   0.84230    15    14     5    29
 C    -3.87510  -2.56180   0.02490    16    20    14    27
 C    -3.75880  -1.08950   2.29970    17    13    19    25
 C    -4.47630   0.76210   1.11380    18    19    39    26
 C    -4.50260  -0.59880   1.25550    19    18    17    20
 C    -4.53050  -1.35930   0.09870    20    16    41    19
 C     0.62920   1.49940   3.76440    21    93    22     8
 C    -0.63970   0.97360   3.84470    22    21    11    23
 C    -1.71750   1.78420   3.30290    23    24    22    95
 C    -2.91190   1.09970   2.95410    24    25    26    23
 C    -2.97980  -0.27310   3.10930    25    12    24    17
 C    -3.72850   1.59410   1.94150    26    98    18    24
 C    -3.37100  -2.71000  -1.26230    27    33    28    16
 C    -2.24010  -3.44590  -1.55290    28    27    29    30
 C    -1.68610  -4.09910  -0.44720    29    44    15    28
 C    -1.36630  -3.03430  -2.60720    30    31    28    36
 C    -0.01310  -3.47880  -2.52000    31    32    30    43
 C     0.93720  -2.69240  -3.15710    32    45    38    31
 C    -3.71770  -1.59260  -1.96080    33    27    41    35
 C    -2.94880   0.26650  -3.12130    34    51    35    42
 C    -2.88420  -1.11130  -2.96580    35    34    33    36
 C    -1.68420  -1.78630  -3.30900    36    35    37    30
 C    -0.61160  -0.96940  -3.84740    37    38    52    36
 C     0.65680  -1.49120  -3.76030    38    32    37    55
 C    -4.52250   1.35020  -0.13340    39    89    18    40
 C    -4.49610   0.58320  -1.29320    40    41    42    39
 C    -4.48550  -0.77220  -1.14250    41    40    20    33
 C    -3.74120   1.08390  -2.32400    42    92    40    34
 C     0.48540  -4.21100  -1.39850    43    44    47    31
 C    -0.37680  -4.43390  -0.35970    44    29    43    60
 C     2.25200  -2.63540  -2.76630    45    46    48    32
 C     2.68870  -3.31840  -1.70620    46    45    47    63
 C     1.80910  -4.08300  -1.00670    47    46    58    43
 C     2.78450  -1.42940  -3.06430    48    45    55    49
 C     3.78730  -0.85370  -2.28590    49    50    48    62
 C     3.77350   0.51090  -2.32020    50    49    70    56
 C    -1.88210   1.02020  -3.55960    51    83    34    52
 C    -0.67310   0.47100  -3.92740    52    51    37    53
 C     0.50000   1.32180  -3.79990    53    54    52    86
 C     1.74990   0.66140  -3.70260    54    55    56    53
 C     1.79520  -0.71020  -3.71290    55    54    38    48
 C     2.80700   1.24600  -3.02860    56    88    54    50
 C     3.32070  -3.23140   0.34160    57    61    63    58
 C     2.20790  -4.02270   0.31850    58    57    47    59
 C     1.29450  -4.06340   1.36260    59    60    58     2
 C     0.02060  -4.35430   0.97830    60     5    59    44
 C     3.56020  -2.47000   1.40580    61    57    64     1
 C     4.22450  -1.50300  -1.10570    62    63    49    65
 C     3.64320  -2.76100  -0.89450    63    57    46    62
 C     4.18150  -1.25890   1.28310    64    61    67    65
 C     4.55690  -0.70430   0.04130    65    64    71    62
 C     3.77230   0.85760   2.30740    66    67    68    69
 C     3.75590  -0.50360   2.34510    67    66    64     7
 C     2.76650   1.44240   3.07740    68    75     8    66
 C     4.21490   1.50280   1.12620    69    72    66    71
 C     4.19500   1.27450  -1.26150    70    78    50    71
 C     4.55630   0.71350  -0.02350    71    70    65    69
 C     3.62540   2.75960   0.91480    72    82    74    69
 C     1.79150   4.06560   1.02730    73    74    81    77
 C     2.67940   3.31560   1.73460    74    75    73    72
 C     2.22910   2.64970   2.79500    75    74    68    93
 C    -0.38770   4.41460   0.35760    76    96    77    79
 C     0.46140   4.19700   1.40700    77    76    73    94
 C     3.57010   2.48180  -1.39950    78    82    70    88
 C     0.01400   4.32550  -0.97780    79    84    80    76
 C     1.29590   4.04540  -1.35640    80    79    81    87
 C     2.19680   4.00310  -0.29870    81    82    73    80
 C     3.31460   3.23000  -0.32880    82    78    81    72
 C    -2.00280   2.28810  -3.04070    83    51    85    92
 C    -1.05640   3.91930  -1.70070    84    79    90    85
 C    -0.90590   3.09030  -2.81750    85    83    84    86
 C     0.38450   2.65200  -3.20240    86    85    87    53
 C     1.50760   3.20600  -2.49030    87    88    80    86
 C     2.68500   2.46940  -2.45350    88    56    78    87
 C    -3.88270   2.55760  -0.04510    89    39    91    98
 C    -2.14950   3.86550  -0.85460    90    91    84    96
 C    -3.22470   3.08550  -1.12840    91    90    89    92
 C    -3.14470   2.31190  -2.26040    92    42    91    83
 C     0.91520   2.70720   3.17750    93    75    21    94
 C    -0.04320   3.47660   2.53420    94    93    95    77
 C    -1.39840   3.03480   2.60350    95    94    97    23
 C    -1.70370   4.09300   0.44050    96    76    90    97
 C    -2.26660   3.44770   1.54400    97    98    96    95
 C    -3.39320   2.71760   1.24670    98    26    97    89
