    98
C98-C1-237                                                                      
 C     3.78500   2.46940  -0.44360     1     2    62     4
 C     4.32910   1.60860   0.52500     2     3    45     1
 C     4.68560   0.32450   0.26050     3     6     2    28
 C     3.57610   1.92750  -1.76480     4     5     8     1
 C     4.00600   0.61820  -1.95850     5    12     6     4
 C     4.55320  -0.17100  -0.96290     6     3    19     5
 C     1.70910   3.38080  -2.04060     7    16     8    61
 C     2.47080   2.35140  -2.57470     8     7     4    10
 C     0.38690   1.69440  -3.77990     9    13    14    10
 C     1.79420   1.46590  -3.49890    10    11     8     9
 C     2.29700   0.12460  -3.61810    11    12    23    10
 C     3.39160  -0.23310  -2.83880    12     5    20    11
 C    -0.38700   0.59600  -4.13700    13    22    97     9
 C    -0.36000   2.74600  -3.18380    14    16     9    15
 C    -1.78190   2.62400  -2.90430    15    17    96    14
 C     0.37720   3.57390  -2.34690    16    68     7    14
 C    -2.28230   3.32970  -1.80870    17    67    78    15
 C     2.67310  -2.45740  -2.57040    18    20    21    24
 C     4.21640  -1.47920  -1.15080    19    20     6    26
 C     3.57430  -1.51030  -2.33580    20    18    19    12
 C     1.63010  -2.20620  -3.38470    21    18    38    23
 C     0.11900  -0.68190  -4.20260    22    23    13    36
 C     1.42440  -0.94130  -3.94760    23    22    21    11
 C     2.32430  -3.37510  -1.61210    24    18    39    25
 C     2.90140  -3.35190  -0.34280    25    24    31    26
 C     3.91760  -2.36200  -0.09210    26    19    27    25
 C     4.04480  -1.80090   1.19870    27    29    28    26
 C     4.42740  -0.47440   1.34760    28     3    44    27
 C     3.18680  -2.22930   2.17250    29    27    32    42
 C     0.69070  -4.24000   0.39350    30    33    41    31
 C     2.04210  -3.80510   0.68060    31    32    25    30
 C     2.26370  -3.20990   1.93420    32    35    29    31
 C    -0.22960  -4.09410   1.42400    33    94    34    30
 C     0.07190  -3.47220   2.61430    34    35    60    33
 C     1.27490  -3.01110   2.84420    35    34    32    47
 C    -0.89150  -1.57960  -3.91900    36    89    22    37
 C    -0.69440  -2.78610  -3.24300    37    38    36    92
 C     0.61300  -3.06150  -2.99810    38    37    39    21
 C     1.02080  -3.75860  -1.87990    39    38    24    41
 C    -1.29840  -3.95520  -1.14550    40    93    92    41
 C     0.12020  -4.19130  -0.91640    41    39    30    40
 C     2.66220  -1.38760   3.16820    42    47    43    29
 C     2.95740  -0.05900   3.25360    43    42    44    50
 C     3.91830   0.35410   2.33190    44    45    28    43
 C     3.91720   1.61500   1.83220    45    46    44     2
 C     3.00120   2.47930   2.24620    46    45    63    51
 C     1.44930  -1.85210   3.55880    47    42    35    48
 C     0.37920  -1.04930   4.01090    48    47    58    49
 C     0.60170   0.37050   4.03420    49    48    50    53
 C     1.92320   0.83230   3.67740    50    51    43    49
 C     2.02320   2.11610   3.15020    51    55    46    50
 C    -1.84970   0.65870   3.70670    52    56    57    53
 C    -0.54850   1.25280   3.84560    53    52    49    54
 C    -0.34420   2.57290   3.25140    54    55    70    53
 C     0.95150   2.93440   2.92530    55    51    54    64
 C    -2.81780   1.39970   3.00270    56    69    81    52
 C    -2.03250  -0.75810   3.69600    57    58    59    52
 C    -0.91370  -1.60190   3.82060    58    57    48    60
 C    -3.12060  -1.27350   2.94790    59    80    88    57
 C    -1.00110  -2.84190   3.13380    60    34    84    58
 C     1.92560   3.91070  -0.77210    61    62    66     7
 C     2.90430   3.44520   0.05440    62    61    63     1
 C     2.52830   3.42660   1.40730    63    46    64    62
 C     1.27750   3.77780   1.86400    64    65    63    55
 C     0.32910   4.30370   1.04460    65    64    71    66
 C     0.71450   4.37650  -0.29960    66    68    61    65
 C    -1.47420   4.10290  -1.01510    67    68    72    17
 C    -0.18760   4.22960  -1.29400    68    67    66    16
 C    -2.57640   2.60500   2.40680    69    56    70    74
 C    -1.35160   3.24260   2.48260    70    69    54    71
 C    -1.01550   4.08710   1.36600    71    65    72    70
 C    -1.90680   4.07520   0.27950    72    75    67    71
 C    -4.14530   1.56210   1.17910    73    74    81    76
 C    -3.42240   2.69550   1.31400    74    75    73    69
 C    -3.05870   3.37850   0.24200    75    74    72    78
 C    -4.49030   1.00190  -0.07550    76    83    73    77
 C    -4.00130   1.69710  -1.23870    77    78    95    76
 C    -3.32190   2.88820  -1.01940    78    17    75    77
 C    -4.36650  -1.11530   1.08280    79    80    87    83
 C    -3.97560  -0.49210   2.24290    80    81    59    79
 C    -3.84620   0.81460   2.28090    81    80    73    56
 C    -4.24850  -1.07740  -1.22950    82    83    98    85
 C    -4.60450  -0.40530  -0.08780    83    82    79    76
 C    -2.02740  -3.21990   2.33100    84    88    60    94
 C    -3.65040  -2.35080  -1.21010    85    91    86    82
 C    -3.35830  -3.03390  -0.05560    86    85    87    93
 C    -3.78330  -2.36570   1.09330    87    88    79    86
 C    -3.09060  -2.45190   2.25820    88    84    87    59
 C    -2.01240  -0.84600  -3.76470    89    90    36    97
 C    -2.99530  -1.29670  -2.99520    90    89    98    91
 C    -2.85350  -2.47860  -2.30470    91    85    90    92
 C    -1.68500  -3.24950  -2.34450    92    91    37    40
 C    -2.17700  -3.83570  -0.01480    93    94    86    40
 C    -1.57300  -3.92830   1.23490    94    33    84    93
 C    -3.60250   0.97990  -2.39540    95    98    77    96
 C    -2.49680   1.44890  -3.21090    96    97    15    95
 C    -1.74450   0.49210  -3.87250    97    89    96    13
 C    -3.79410  -0.40700  -2.33690    98    90    82    95
