    98
C98-C1-178                                                                      
 C     3.49080   2.26500  -1.70170     1     6     2    59
 C     3.17680   3.15870  -0.70760     2     1     3     9
 C     3.65680   2.76580   0.54010     3     4    58     2
 C     2.95860   3.04770   1.67480     4     5     3    27
 C     1.86530   3.76790   1.61060     5     4    17    10
 C     2.65790   2.10900  -2.77080     6     1    65     7
 C     1.44210   2.79040  -2.93320     7     6    14     8
 C     1.05140   3.72590  -1.91200     8     7     9    12
 C     1.95840   3.89740  -0.80680     9    10     2     8
 C     1.36550   4.23410   0.40930    10    20     5     9
 C    -1.26050   3.24040  -2.52090    11    13    44    12
 C    -0.37120   3.95140  -1.70540    12    11    19     8
 C    -0.84970   2.31210  -3.44620    13    14    11    96
 C     0.46980   2.07430  -3.67200    14    13    15     7
 C     0.72050   0.77380  -4.09290    15    64    93    14
 C    -1.41970   3.54810   2.20560    16    18    21    23
 C     0.85750   3.50920   2.48780    17    18     5    25
 C    -0.23730   4.00650   1.87510    18    16    17    20
 C    -0.91040   4.30470  -0.42840    19    20    12    22
 C     0.02920   4.41180   0.58270    20    10    18    19
 C    -2.42790   3.56270   1.30960    21    16    39    22
 C    -2.23760   3.91340  -0.04750    22    45    21    19
 C    -1.54070   2.49190   3.09480    23    40    16    24
 C    -0.43610   1.82970   3.64790    24    23    25    35
 C     0.83550   2.40140   3.37700    25    26    24    17
 C     1.98720   1.60330   3.40380    26    25    27    29
 C     3.05630   2.01610   2.56770    27    28     4    26
 C     3.95150   1.17090   2.00900    28    31    27    58
 C     1.87760   0.21190   3.67630    29    30    26    36
 C     2.89320  -0.59650   3.13750    30    51    31    29
 C     3.89110  -0.11320   2.30270    31    28    48    30
 C     0.48180  -1.82790   3.59200    32    33    50    36
 C    -0.78780  -2.31730   3.32620    33    37    32    72
 C    -1.89480  -0.17020   3.59740    34    37    43    35
 C    -0.59750   0.42330   3.90300    35    24    34    36
 C     0.60000  -0.41020   3.90820    36    29    32    35
 C    -1.92240  -1.53180   3.33340    37    33    34    89
 C    -4.10110   2.01310   0.88720    38    39    41    46
 C    -3.28770   2.60840   1.74320    39    38    21    40
 C    -2.73600   1.90310   2.79720    40    23    43    39
 C    -4.45750   0.72180   1.08810    41    38    85    42
 C    -3.94920  -0.06000   2.14700    42    88    41    43
 C    -2.98880   0.56240   3.01940    43    40    34    42
 C    -2.54240   2.88080  -2.15070    44    45    11    90
 C    -3.07370   3.20900  -0.92920    45    44    46    22
 C    -4.00610   2.29540  -0.45450    46    38    92    45
 C     3.27960  -3.07780   0.85440    47    49    52    54
 C     4.24660  -1.05240   1.37970    48    49    31    56
 C     3.58860  -2.16480   1.75750    49    47    48    51
 C     1.54630  -2.59340   3.00610    50    51    32    53
 C     2.72930  -1.91000   2.81140    51    30    50    49
 C     2.18310  -3.84300   1.03890    52    47    67    53
 C     1.27910  -3.68380   2.10940    53    73    52    50
 C     3.50890  -2.84220  -0.49030    54    68    47    55
 C     4.11180  -1.67180  -0.94160    55    54    61    56
 C     4.56560  -0.72670   0.04100    56    57    48    55
 C     4.59620   0.65480  -0.24360    57    59    58    56
 C     4.32410   1.57740   0.75300    58    28     3    57
 C     4.17170   1.05360  -1.48890    59    62    57     1
 C     2.57480  -1.93090  -2.89320    60    63    71    61
 C     3.64810  -1.23010  -2.20910    61    62    55    60
 C     3.73700   0.15230  -2.42720    62    65    59    61
 C     1.73580  -1.16530  -3.69400    63    64    80    60
 C     1.90380   0.17570  -3.85320    64    65    15    63
 C     2.86880   0.83000  -3.22780    65    64    62     6
 C     0.51200  -4.48250  -0.44580    66    67    74    69
 C     1.78020  -4.17770  -0.22570    67    66    68    52
 C     2.52480  -3.52370  -1.16820    68    67    54    71
 C    -0.09800  -4.10970  -1.61560    69    75    66    70
 C     0.56410  -3.37690  -2.59730    70    69    79    71
 C     1.96480  -3.08730  -2.36820    71    68    60    70
 C    -1.03950  -3.40560   2.50470    72    73    81    33
 C    -0.03330  -4.07160   1.84620    73    72    53    74
 C    -0.39050  -4.50820   0.56450    74    66    84    73
 C    -1.43380  -4.00410  -1.34990    75    69    77    84
 C    -3.35100  -2.69870  -1.32560    76    97    77    82
 C    -2.25790  -3.14340  -2.05250    77    75    76    78
 C    -1.70420  -2.32460  -3.07720    78    77    79    94
 C    -0.28130  -2.49210  -3.34200    79    80    70    78
 C     0.38600  -1.41970  -3.89270    80    93    79    63
 C    -2.30750  -3.27420   1.98920    81    72    89    83
 C    -3.53020  -2.98170   0.03330    82    83    87    76
 C    -2.62610  -3.72610   0.71910    83    84    82    81
 C    -1.61880  -4.28930   0.00930    84    83    74    75
 C    -4.68270   0.21480  -0.16880    85    86    92    41
 C    -4.50810  -1.07630  -0.40680    86    85    87    97
 C    -4.17830  -1.91720   0.60550    87    86    82    88
 C    -3.85960  -1.43280   1.88600    88    89    42    87
 C    -2.87460  -2.13950   2.52550    89    88    81    37
 C    -2.87570   1.69270  -2.81150    90    96    91    44
 C    -3.75510   0.75570  -2.31520    91    90    92    98
 C    -4.35000   1.13830  -1.11900    92    85    46    91
 C    -0.23660  -0.22120  -4.15910    93    95    80    15
 C    -2.35040  -1.03900  -3.35000    94    95    98    78
 C    -1.55790   0.00500  -3.89070    95    93    96    94
 C    -1.83200   1.33390  -3.59110    96    90    95    13
 C    -3.94840  -1.50320  -1.59430    97    76    86    98
 C    -3.49780  -0.62840  -2.57830    98    97    91    94
