    98
C98-Cs-23                                                                       
 C     2.72700  -3.54670  -0.70260     1     6     2    61
 C     3.46920  -2.67320  -1.42910     2     1     3    10
 C     4.44690  -2.01420  -0.69780     3     4     2    37
 C     4.94000  -0.81080  -1.09650     4     3     5    14
 C     4.34130  -0.19060  -2.15060     5    15     4    11
 C     1.52100  -3.97300  -1.11970     6     1    65     8
 C    -0.47820  -3.54740  -2.19740     7     8    19    66
 C     0.87580  -3.41580  -2.22350     8     7     6     9
 C     1.46440  -2.31690  -2.88750     9     8    10    21
 C     2.81400  -2.02560  -2.53100    10    11     9     2
 C     3.27450  -0.76160  -2.80410    11    10     5    23
 C     5.13630   1.26600   0.00770    12    14    31    13
 C     4.59230   1.87730  -1.09500    13    17    15    12
 C     5.31160  -0.08580   0.00760    14    12    30     4
 C     4.16370   1.14820  -2.15800    15     5    13    24
 C     1.75040   3.91350  -0.69640    16    98    18    34
 C     3.79950   2.90240  -0.69340    17    13    18    32
 C     2.68320   3.28090  -1.42570    18    16    17    27
 C    -1.31730  -2.62970  -2.78360    19     7    77    20
 C    -0.85180  -1.43310  -3.34860    20    19    21    91
 C     0.56830  -1.26860  -3.41610    21    20    22     9
 C     1.06800   0.07180  -3.51300    22    23    21    25
 C     2.42450   0.24590  -3.23750    23    24    11    22
 C     2.98580   1.43120  -2.81050    24    27    15    23
 C     0.19730   1.22670  -3.41220    25    22    92    26
 C     0.79700   2.46190  -2.88430    26    97    27    25
 C     2.19180   2.51780  -2.53650    27    24    18    26
 C     4.34620  -0.21020   2.14490    28    29    30    38
 C     4.16600   1.13450   2.14590    29    28    31    58
 C     4.95030  -0.83320   1.09310    30    37    28    14
 C     4.59030   1.88880   1.09460    31    32    29    12
 C     3.80290   2.91550   0.71080    32    31    33    17
 C     2.67960   3.28510   1.42710    33    34    32    57
 C     1.74360   3.91500   0.70350    34    60    33    16
 C    -0.48690  -3.55270   2.15500    35    36    48    63
 C     0.86810  -3.42830   2.18190    36    35    62    41
 C     4.45990  -2.03390   0.70600    37    30    40     3
 C     3.27320  -0.78240   2.79020    38    39    28    42
 C     2.81130  -2.04770   2.50870    39    38    41    40
 C     3.47650  -2.70070   1.41440    40    61    37    39
 C     1.45590  -2.33090   2.85640    41    36    39    44
 C     2.41360   0.22170   3.21800    42    58    38    43
 C     1.05390   0.05080   3.48410    43    42    44    52
 C     0.55330  -1.28810   3.38320    44    47    43    41
 C    -1.24980   1.00720   3.31520    45    55    52    46
 C    -1.79550  -0.34870   3.30800    46    47    45    50
 C    -0.86620  -1.45030   3.30830    47    48    44    46
 C    -1.33280  -2.64100   2.73780    48    72    35    47
 C    -3.89950   0.50190   2.35180    49    56    50    80
 C    -3.14360  -0.58280   2.79060    50    49    71    46
 C     0.78470   2.44100   2.85830    51    59    57    52
 C     0.18600   1.20710   3.38050    52    43    45    51
 C    -2.18390   3.77660   1.11550    53    84    89    54
 C    -1.47160   3.20120   2.19730    54    59    53    55
 C    -2.08220   2.06400   2.79230    55    56    54    45
 C    -3.38560   1.77020   2.35120    56    49    85    55
 C     2.18380   2.49760   2.51730    57    58    33    51
 C     2.97580   1.40790   2.79060    58    57    42    29
 C    -0.08200   3.35610   2.20530    59    54    60    51
 C     0.47560   4.02500   1.10240    60    34    87    59
 C     2.72610  -3.56260   0.69190    61    62    40     1
 C     1.51640  -3.98700   1.08020    62    61    65    36
 C    -1.17880  -4.16680   1.12580    63    67    64    35
 C    -0.52320  -4.51410  -0.02530    64    65    63    66
 C     0.80710  -4.41100  -0.02180    65    64    62     6
 C    -1.17970  -4.16180  -1.17540    66    70    64     7
 C    -2.44780  -3.69990   1.13480    67    63    69    72
 C    -4.13760  -2.61640  -0.01230    68    69    73    75
 C    -3.17150  -3.55190  -0.02780    69    68    70    67
 C    -2.44550  -3.69930  -1.18500    70    66    69    77
 C    -3.51260  -1.81970   2.18300    71    72    73    50
 C    -2.57280  -2.79220   2.16990    72    71    48    67
 C    -4.41490  -1.83260   1.10130    73    81    68    71
 C    -5.00040  -0.71640  -0.69270    74    78    75    81
 C    -4.38270  -1.82700  -1.13320    75    74    68    76
 C    -3.48950  -1.80430  -2.22420    76    77    75    90
 C    -2.55910  -2.78400  -2.21340    77    76    19    70
 C    -4.82310   0.43380  -1.36650    78    74    82    93
 C    -4.89370   1.61230   0.68560    79    80    85    82
 C    -4.87350   0.43190   1.35010    80    81    79    49
 C    -5.03480  -0.71920   0.68700    81    80    73    74
 C    -4.86460   1.61430  -0.70390    82    86    78    79
 C    -3.38120   3.38660  -0.69400    83    86    88    84
 C    -3.39280   3.38920   0.68830    84    85    53    83
 C    -4.06130   2.45440   1.34690    85    84    79    56
 C    -4.03630   2.44960  -1.37050    86    83    82    94
 C    -0.25090   4.28050  -0.01160    87    89    60    98
 C    -2.18090   3.78110  -1.13710    88    83    89    96
 C    -1.52520   4.16930  -0.01180    89    87    88    53
 C    -3.12880  -0.56700  -2.82810    90    93    76    91
 C    -1.78250  -0.33010  -3.34680    91    20    90    92
 C    -1.23900   1.02930  -3.35080    92    95    25    91
 C    -3.87400   0.51610  -2.38710    93    94    90    78
 C    -3.36970   1.78570  -2.39180    94    93    86    95
 C    -2.06870   2.08870  -2.82750    95    94    96    92
 C    -1.46250   3.22290  -2.22490    96    97    88    95
 C    -0.07280   3.37280  -2.23030    97    96    98    26
 C     0.48640   4.03260  -1.12260    98    16    87    97
