    98
C98-C1-81                                                                       
 C    -0.07610  -1.88710   3.64170     1     2    63     7
 C     0.36150  -0.62150   3.95740     2     1    10     3
 C     1.76270  -0.33690   3.69030     3     4     2    62
 C     2.08780   1.02650   3.49030     4     5     6     3
 C     3.19860   1.39040   2.76570     5    59     4    19
 C     1.07620   1.95930   3.47150     6    11     4    17
 C    -1.39340  -2.17500   3.35200     7    68     1     8
 C    -2.43000  -1.24980   3.31840     8     7     9    15
 C    -2.07400   0.09500   3.63660     9     8    13    10
 C    -0.68280   0.37280   3.96490    10    11     2     9
 C    -0.23690   1.65740   3.70780    11     6    29    10
 C    -3.95170   0.77360   2.21850    12    14    91    13
 C    -2.88530   1.13930   3.06170    13    12    28     9
 C    -4.23510  -0.52660   1.89260    14    12    15    98
 C    -3.50130  -1.55940   2.42420    15    14    16     8
 C    -3.37660  -2.66880   1.57890    16    67    95    15
 C     1.10650   3.08590   2.65340    17    22    18     6
 C     2.13800   3.36560   1.80980    18    17    19    26
 C     3.23930   2.54130   1.97020    19    20    18     5
 C     4.11370   2.31120   0.97300    20    19    21    33
 C     3.83010   2.80480  -0.25640    21    20    34    27
 C    -0.16240   3.44920   2.38720    22    17    24    29
 C    -1.84230   3.84450   0.88480    23    24    45    30
 C    -0.52060   4.03400   1.18010    24    23    22    25
 C     0.46420   4.16470   0.15980    25    26    24    47
 C     1.81520   3.89530   0.51870    26    27    25    18
 C     2.69570   3.52660  -0.48690    27    21    49    26
 C    -2.30620   2.39870   2.77830    28    29    30    13
 C    -1.01130   2.61710   3.10740    29    28    11    22
 C    -2.73430   3.12070   1.66780    30    92    23    28
 C     4.95430   0.33720   0.03990    31    33    53    32
 C     4.68530   0.83650  -1.21120    32    36    34    31
 C     4.63330   1.06190   1.13020    33    31    20    59
 C     4.09650   2.04550  -1.34980    34    32    21    38
 C     2.59110  -1.12720  -3.26590    35    44    37    55
 C     4.32100  -0.18430  -2.01820    36    32    54    37
 C     3.33640  -0.00060  -3.00060    37    35    36    42
 C     3.11090   2.25400  -2.27830    38    34    49    42
 C    -0.85030   2.30180  -3.29200    39    40    82    50
 C     0.51030   2.44390  -3.16740    40    39    48    41
 C     1.32810   1.33450  -3.60680    41    42    40    43
 C     2.67410   1.25210  -3.14810    42    38    41    37
 C     0.63730   0.10500  -3.96010    43    44    83    41
 C     1.30610  -1.08330  -3.72300    44    35    43    75
 C    -2.27970   3.75760  -0.41020    45    23    46    87
 C    -1.35800   3.75850  -1.44930    46    50    45    47
 C     0.02420   3.95300  -1.21590    47    46    48    25
 C     0.95470   3.36410  -2.15350    48    49    40    47
 C     2.25860   3.22150  -1.76380    49    48    27    38
 C    -1.77080   2.97590  -2.50930    50    46    39    89
 C     3.49280  -2.79390   0.80760    51    60    52    57
 C     4.20940  -1.66440   1.14210    52    51    53    58
 C     4.75590  -1.00100   0.02780    53    31    54    52
 C     4.43850  -1.35630  -1.28170    54    56    36    53
 C     2.75440  -2.31430  -2.57440    55    56    69    35
 C     3.65310  -2.43180  -1.54490    56    54    57    55
 C     3.22620  -3.19140  -0.49760    57    56    71    51
 C     3.78290  -0.90730   2.28840    58    59    52    62
 C     4.04450   0.45770   2.21530    59     5    33    58
 C     2.47260  -3.24840   1.58170    60    51    61    64
 C     2.04390  -2.56390   2.71220    61    63    60    62
 C     2.63690  -1.32950   3.06020    62    61    58     3
 C     0.73380  -2.81260   3.01910    63    61     1    66
 C     1.59950  -3.97150   0.76330    64    65    71    60
 C     0.28960  -4.16970   1.05520    65    64    66    73
 C    -0.09390  -3.63060   2.27530    66    68    63    65
 C    -2.30430  -3.48090   1.61940    67    68    16    74
 C    -1.36100  -3.27270   2.52850    68    67    66     7
 C     1.54290  -2.97930  -2.59220    69    75    55    70
 C     1.11730  -3.81060  -1.57230    70    69    71    72
 C     2.02980  -3.86970  -0.52130    71    64    57    70
 C    -0.27220  -3.97130  -1.34850    72    70    73    77
 C    -0.67420  -4.24490   0.00590    73    74    65    72
 C    -1.97310  -3.93190   0.36440    74    80    67    73
 C     0.65430  -2.25510  -3.34230    75    69    76    44
 C    -0.71050  -2.38060  -3.22560    76    75    86    77
 C    -1.22740  -3.30520  -2.23090    77    79    76    72
 C    -3.29870  -2.02230  -2.28560    78    85    79    96
 C    -2.55590  -3.07280  -1.77190    79    80    78    77
 C    -2.90290  -3.40150  -0.47300    80    74    79    95
 C    -2.74210   1.17580  -3.27850    81    84    82    89
 C    -1.46400   1.15140  -3.73730    82    81    39    83
 C    -0.76390  -0.01790  -3.98630    83    82    43    86
 C    -3.40630   0.04310  -3.02170    84    81    93    85
 C    -2.75400  -1.14780  -3.19340    85    84    78    86
 C    -1.45070  -1.25010  -3.66000    86    85    76    83
 C    -3.47660   3.05230  -0.41400    87    92    88    45
 C    -3.87700   2.26600  -1.47730    88    89    87    94
 C    -2.96880   2.28060  -2.51840    89    81    88    50
 C    -4.82190   0.74330   0.13550    90    91    98    94
 C    -4.37150   1.54460   1.15210    91    92    90    12
 C    -3.73870   2.68920   0.87500    92    91    30    87
 C    -4.32010  -0.03270  -2.01430    93    84    96    94
 C    -4.58710   1.06840  -1.20440    94    93    90    88
 C    -3.83100  -2.67120   0.27300    95    97    16    80
 C    -4.27700  -1.32920  -1.55630    96    97    93    78
 C    -4.52930  -1.62060  -0.23770    97    95    96    98
 C    -4.77360  -0.55570   0.60260    98    97    90    14
