    98
C98-C1-180                                                                      
 C     4.25290   1.55720   0.54680     1     2     5    61
 C     4.58130   0.24830   0.30130     2    57     1    15
 C     2.54110   3.70830   0.58010     3     4     6    62
 C     3.06360   3.31730  -0.57150     4     3     5     7
 C     3.93090   2.28870  -0.60540     5     4    13     1
 C     1.31700   4.27810   0.59740     6     3    68     9
 C     2.30690   3.36920  -1.72340     7    17     4     8
 C     1.00480   3.85260  -1.76440     8     7    19     9
 C     0.49410   4.41090  -0.54330     9    11     6     8
 C    -1.70880   3.88640  -1.25430    10    98    11    18
 C    -0.88140   4.41160  -0.28470    11    10     9    12
 C    -1.33530   4.22720   1.02920    12    67    95    11
 C     3.81430   1.72070  -1.85280    13    14     5    17
 C     4.10990   0.40950  -2.04780    14    13    16    15
 C     4.53090  -0.32070  -0.97230    15    14    25     2
 C     3.32930  -0.24350  -2.95730    16    14    22    23
 C     2.76310   2.36010  -2.51810    17     7    21    13
 C    -1.22150   3.29280  -2.40600    18    10    34    19
 C     0.12980   3.21520  -2.70730    19    18     8    20
 C     0.55370   2.09270  -3.51310    20    21    19    36
 C     1.92400   1.70000  -3.40250    21    22    17    20
 C     2.28380   0.37910  -3.61350    22    38    16    21
 C     3.00890  -1.58180  -2.81340    23    28    24    16
 C     3.42180  -2.35770  -1.75020    24    23    25    32
 C     4.22190  -1.65170  -0.83830    25    26    15    24
 C     4.17320  -1.89480   0.49340    26    27    25    57
 C     3.41420  -2.88950   0.93450    27    26    42    33
 C     1.81680  -1.79680  -3.42290    28    23    30    38
 C    -0.33930  -2.54690  -3.36350    29    54    30    39
 C     0.96560  -2.81100  -3.03500    30    29    28    31
 C     1.27630  -3.64430  -1.91520    31    30    32    53
 C     2.54990  -3.38530  -1.28500    32    33    24    31
 C     2.63110  -3.64640   0.08130    33    48    27    32
 C    -2.15280   2.35040  -2.81150    34    18    89    35
 C    -1.81210   1.21900  -3.54180    35    34    93    36
 C    -0.42320   1.08000  -3.90950    36    37    35    20
 C     0.04820  -0.25610  -4.11010    37    38    39    36
 C     1.36960  -0.56810  -3.92980    38    22    37    28
 C    -0.78880  -1.32250  -3.89250    39    94    37    29
 C     1.78190  -1.36100   3.64910    40    58    41    46
 C     2.91000  -1.61340   2.90550    41    40    42    56
 C     2.82450  -2.78930   2.14650    42    27    43    41
 C     1.71820  -3.59450   2.09900    43    45    42    48
 C    -0.57190  -3.68530   2.38800    44    45    69    52
 C     0.63920  -3.32540   2.87940    45    44    43    46
 C     0.68290  -2.19370   3.64820    46    45    71    40
 C     0.35720  -4.40630   0.25000    47    48    52    53
 C     1.58200  -4.11570   0.81330    48    33    47    43
 C    -3.34990  -2.99860  -0.86080    49    88    82    50
 C    -2.26500  -3.83250  -0.61530    50    51    49    55
 C    -1.97830  -3.95020   0.71920    51    52    50    84
 C    -0.71900  -4.23900   1.12470    52    51    44    47
 C     0.15600  -4.18570  -1.14640    53    47    55    31
 C    -1.37260  -3.11970  -2.68910    54    29    86    55
 C    -1.19560  -3.91960  -1.56100    55    54    50    53
 C     3.65050  -0.50550   2.42740    56    57    41    60
 C     4.32430  -0.73040   1.21920    57     2    26    56
 C     1.34270  -0.09190   3.92540    58    40    59    72
 C     2.02120   1.04100   3.50480    59    58    64    60
 C     3.23290   0.84310   2.71580    60    61    56    59
 C     3.59310   1.87030   1.77490    61    62     1    60
 C     2.77670   2.99220   1.74190    62    65     3    61
 C    -0.23820   2.12830   3.59650    63    66    74    64
 C     1.19830   2.19120   3.39290    64    65    59    63
 C     1.66140   3.16680   2.51400    65    62    68    64
 C    -1.00880   3.06540   2.90730    66    67    80    63
 C    -0.47300   3.97910   2.04570    67    68    12    66
 C     0.82420   4.01880   1.84340    68    67     6    65
 C    -1.71690  -2.97480   2.70440    69    84    44    70
 C    -1.69880  -1.79530   3.45600    70    71    69    76
 C    -0.44090  -1.44610   3.91070    71    72    46    70
 C    -0.04560  -0.15010   4.10000    72    71    74    58
 C    -2.26110   0.60570   3.45990    73    79    74    76
 C    -0.90620   0.90620   3.89700    74    72    63    73
 C    -3.66100  -1.07820   2.20630    75    77    83    76
 C    -2.65800  -0.77940   3.20150    76    70    75    73
 C    -4.22610   0.01270   1.54920    77    78    85    75
 C    -3.89290   1.30790   1.79920    78    77    79    96
 C    -2.93530   1.63580   2.74430    79    80    78    73
 C    -2.28970   2.82910   2.48780    80    66    79    95
 C    -4.48890  -1.15190  -0.47260    81    85    82    87
 C    -4.01270  -2.28050   0.12160    82    81    49    83
 C    -3.60820  -2.28980   1.45150    83    84    82    75
 C    -2.61600  -3.18930   1.70680    84    69    83    51
 C    -4.62880  -0.03330   0.22830    85    81    90    77
 C    -2.44930  -2.29300  -2.88240    86    88    94    54
 C    -4.09320  -1.08410  -1.78490    87    88    81    92
 C    -3.43410  -2.24580  -1.99830    88    86    87    49
 C    -3.21860   2.38150  -1.92310    89    91    98    34
 C    -4.46160   1.17850  -0.35790    90    85    96    91
 C    -4.02160   1.28740  -1.68990    91    89    92    90
 C    -3.77450   0.12540  -2.43360    92    91    87    93
 C    -2.67960   0.08840  -3.36190    93    94    92    35
 C    -2.09300  -1.15940  -3.56260    94    39    86    93
 C    -2.50330   3.57860   1.32600    95    97    12    80
 C    -4.08750   2.05070   0.62950    96    97    90    78
 C    -3.35480   3.15930   0.35380    97    96    95    98
 C    -2.92530   3.31450  -0.94900    98    10    89    97
