    98
C98-C1-186                                                                      
 C    -2.25950   1.27800   3.38900     1    70    16     2
 C    -2.13480   2.51760   2.76520     2     1    68     8
 C    -0.49610   3.97250   1.66940     3     4    11     8
 C    -1.46050   4.11790   0.65890     4    69     5     3
 C    -1.11900   4.25440  -0.66610     5     6    21     4
 C     0.14310   4.32340  -1.03660     6     5    12    22
 C     0.27270   2.32730   3.35900     7     9    18     8
 C    -0.81730   3.07220   2.74890     8     2     3     7
 C     1.55520   2.62540   2.92600     9    10    98     7
 C     1.83980   3.52120   1.91810    10    11     9    29
 C     0.83580   4.16540   1.24520    11    10    12     3
 C     1.12620   4.35670  -0.11160    12     6    31    11
 C    -1.01460  -2.87270   3.01630    13    79    14    72
 C    -0.57250  -1.75690   3.71090    14    15    13    94
 C    -1.53440  -0.78140   3.81490    15    14    16    71
 C    -1.19890   0.55490   3.88940    16    18     1    15
 C     1.15160  -0.00410   3.86590    17    97    18    94
 C     0.10050   0.99920   3.89010    18    16     7    17
 C    -1.67360   2.97390  -2.63710    19    21    34    20
 C    -0.26940   2.97090  -2.98420    20    22    27    19
 C    -2.04170   3.64300  -1.45720    21     5    54    19
 C     0.58160   3.71050  -2.17810    22    23     6    20
 C     1.90250   3.43900  -1.98780    23    22    25    31
 C     3.61130   1.88020  -1.89820    24    47    25    32
 C     2.51820   2.36100  -2.60450    25    23    24    26
 C     1.73480   1.49330  -3.42640    26    25    27    49
 C     0.34640   1.84660  -3.62510    27    28    20    26
 C    -0.52300   0.82870  -3.94660    28    27    33    51
 C     3.03730   3.15170   1.33960    29    89    10    30
 C     3.27480   3.32380  -0.01610    30    31    32    29
 C     2.26620   3.89620  -0.71790    31    30    12    23
 C     3.99550   2.34670  -0.64100    32    30    92    24
 C    -1.87630   0.87530  -3.66890    33    36    28    34
 C    -2.51800   1.90220  -2.98170    34    33    19    35
 C    -3.65420   1.54450  -2.17890    35    38    53    34
 C    -2.28850  -0.42310  -3.58970    36    37    39    33
 C    -3.33200  -0.76640  -2.84210    37    36    38    40
 C    -4.01840   0.18670  -2.16270    38    37    55    35
 C    -1.24720  -1.27700  -3.75830    39    36    51    42
 C    -3.34750  -1.96550  -2.17840    40    37    58    41
 C    -2.31130  -2.88350  -2.29360    41    40    63    42
 C    -1.20420  -2.53640  -3.16450    42    39    45    41
 C     2.42000  -2.55250  -2.59920    43    52    81    44
 C     1.26180  -2.26180  -3.31250    44    43    50    45
 C     0.08880  -3.04100  -2.97140    45    46    42    44
 C     0.19750  -3.95000  -1.92050    46    82    62    45
 C     3.99510   0.57580  -1.98930    47    24    48    85
 C     3.30310  -0.32190  -2.78940    48    47    52    49
 C     2.14560   0.09130  -3.51750    49    48    50    26
 C     1.15400  -0.92070  -3.79340    50    51    44    49
 C    -0.13330  -0.49880  -4.02020    51    50    39    28
 C     3.39700  -1.63260  -2.34390    52    43    48    88
 C    -3.91720   2.23440  -0.97410    53    54    57    35
 C    -3.07170   3.26000  -0.63990    54    21    53    69
 C    -4.53810  -0.46040  -1.07520    55    56    38    58
 C    -4.74390   0.21180   0.05570    56    55    59    57
 C    -4.44290   1.55190   0.11810    57    56    67    53
 C    -4.09940  -1.77040  -1.03850    58    40    55    61
 C    -4.51050  -0.39140   1.25240    59    56    66    60
 C    -4.05120  -1.71580   1.36900    60    59    73    61
 C    -3.83930  -2.45690   0.15030    61    58    64    60
 C    -0.83140  -4.22410  -1.04660    62    75    46    63
 C    -2.11090  -3.69650  -1.15310    63    62    41    64
 C    -2.84160  -3.45880   0.07280    64    65    61    63
 C    -2.12940  -3.70270   1.25900    65    76    72    64
 C    -4.11020   0.62780   2.07750    66    70    67    59
 C    -4.04350   1.81630   1.41870    67    66    57    68
 C    -3.09460   2.77830   1.74000    68    69    67     2
 C    -2.68860   3.53800   0.68160    69     4    68    54
 C    -3.23410   0.37080   3.05150    70    66    71     1
 C    -2.80160  -0.89100   3.26650    71    70    15    73
 C    -2.27020  -2.94420   2.39100    72    73    65    13
 C    -3.20060  -1.95960   2.47150    73    72    71    60
 C     1.11450  -4.37710   0.07590    74    75    82    77
 C    -0.23230  -4.49060   0.16040    75    76    74    62
 C    -0.85630  -4.18130   1.28420    76    75    65    79
 C     1.92190  -3.89140   1.12520    77    84    74    78
 C     1.23040  -3.45210   2.30540    78    79    93    77
 C    -0.14080  -3.66390   2.33460    79    13    76    78
 C     3.36770  -3.09100  -0.64450    80    81    88    84
 C     2.46230  -3.46890  -1.58430    81    82    80    43
 C     1.37280  -4.12450  -1.24020    82    81    74    46
 C     3.60970  -2.26610   1.52360    83    84    86    95
 C     3.11270  -3.26480   0.72540    84    83    77    80
 C     4.62220   0.22780  -0.79200    85    87    92    47
 C     4.36650  -1.22070   1.02900    86    90    83    87
 C     4.58450  -1.06250  -0.33450    87    88    85    86
 C     4.02210  -1.99250  -1.14570    88    87    80    52
 C     3.53270   2.06900   2.01430    89    29    91    98
 C     4.21110  -0.14020   1.85890    90    91    86    96
 C     4.34280   1.14500   1.40410    91    90    89    92
 C     4.56580   1.30950   0.04790    92    32    85    91
 C     1.71090  -2.32650   3.05490    93    95    78    94
 C     0.80210  -1.42010   3.72910    94    14    93    17
 C     2.92540  -1.80570   2.63700    95    96    83    93
 C     3.28490  -0.49610   2.83460    96    95    97    90
 C     2.42030   0.41810   3.41560    97    98    96    17
 C     2.59680   1.72140   2.98360    98     9    97    89
