    98
C98-C1-60                                                                       
 C     4.05330  -1.22670   1.80670     1     4    64     2
 C     4.57730  -0.36340   0.84250     2     1    58     3
 C     4.61690  -0.89000  -0.49980     3     6    14     2
 C     3.61990  -2.51180   1.54460     4     5    12     1
 C     3.66510  -2.99130   0.30180     5     4     6     8
 C     4.14190  -2.19640  -0.69840     6     5    16     3
 C     0.40280  -4.37010   0.01270     7     9    96    21
 C     2.65860  -3.81240  -0.13850     8     5    19     9
 C     1.58600  -4.17220   0.67100     9     7     8    10
 C     1.50470  -3.67340   1.98310    10    12     9    11
 C     0.21170  -3.39230   2.54890    11    13    95    10
 C     2.58090  -2.85330   2.36400    12    67     4    10
 C     0.15250  -2.31210   3.42230    13    66    92    11
 C     4.39710   0.00030  -1.57750    14    15    18     3
 C     4.30840   1.33470  -1.33310    15    14    60    24
 C     3.41870  -2.58270  -1.79720    16    17    19     6
 C     3.12440  -1.67640  -2.73210    17    16    18    41
 C     3.60810  -0.42340  -2.65200    18    17    22    14
 C     2.50340  -3.53790  -1.48650    19    16     8    20
 C     1.27400  -3.60700  -2.12010    20    21    19    40
 C     0.26470  -4.11240  -1.35120    21    42    20     7
 C     2.69020   0.38520  -3.30310    22    23    27    18
 C     2.58190   1.70840  -3.04120    23    22    24    30
 C     3.49390   2.18410  -2.08690    24    25    15    23
 C     3.19490   3.24290  -1.32250    25    26    24    48
 C     2.01620   3.85760  -1.48580    26    25    49    31
 C     1.61000  -0.37990  -3.69370    27    41    22    28
 C     0.31330   0.11950  -3.83850    28    27    38    29
 C     0.12610   1.52980  -3.56940    29    30    28    33
 C     1.29040   2.29530  -3.18250    30    31    23    29
 C     1.07860   3.40910  -2.37680    31    26    35    30
 C    -2.27340   1.06680  -3.21180    32    36    33    37
 C    -1.19050   1.98930  -3.17800    33    32    29    34
 C    -1.31010   3.13430  -2.27830    34    35    55    33
 C    -0.15520   3.75760  -1.89530    35    34    31    50
 C    -3.42430   1.40680  -2.46670    36    87    54    32
 C    -2.04850  -0.33370  -3.47070    37    39    38    32
 C    -0.74320  -0.84290  -3.71410    38    37    28    44
 C    -2.99680  -1.21150  -2.91030    39    86    45    37
 C     0.92450  -2.62030  -3.09700    40    41    44    20
 C     1.89730  -1.68200  -3.35440    41    40    17    27
 C    -1.02520  -3.83160  -1.60420    42    21    43    89
 C    -1.41710  -2.95580  -2.60770    43    45    42    44
 C    -0.42640  -2.22690  -3.31660    44    43    40    38
 C    -2.65640  -2.45070  -2.43050    45    43    39    91
 C     3.00980   3.45970   0.98700    46    48    47    61
 C     1.84790   4.13960   0.82040    47    49    51    46
 C     3.71690   3.03200  -0.07770    48    46    60    25
 C     1.35630   4.35810  -0.41720    49    50    47    26
 C     0.02870   4.33300  -0.63650    50    49    53    35
 C     0.98910   3.84440   1.82670    51    47    52    68
 C    -0.38740   3.88480   1.68980    52    51    70    53
 C    -0.90780   4.19630   0.37000    53    50    56    52
 C    -3.47110   2.46300  -1.57500    54    55    82    36
 C    -2.39780   3.29610  -1.38110    55    54    34    56
 C    -2.16580   3.77520  -0.02910    56    53    57    55
 C    -2.96460   3.22510   0.96240    57    83    56    69
 C     4.39320   1.02180   1.09460    58    60     2    59
 C     3.59120   1.48130   2.22230    59    61    63    58
 C     4.37500   1.84450  -0.04120    60    48    15    58
 C     2.90700   2.68960   2.10150    61    46    59    68
 C     1.67380   0.83300   3.66850    62    65    72    63
 C     2.97220   0.55550   3.08500    63    64    59    62
 C     3.28800  -0.77880   2.86660    64    67     1    63
 C     0.85780  -0.26010   3.94660    65    66    74    62
 C     1.24310  -1.53800   3.70060    66    67    65    13
 C     2.43220  -1.79700   3.19020    67    66    12    64
 C     1.64540   2.94070   2.64900    68    72    51    61
 C    -2.43130   2.81830   2.18420    69    70    76    57
 C    -1.13070   3.05350   2.55730    70    69    52    71
 C    -0.49080   2.07820   3.40460    71    70    72    73
 C     0.95240   2.02450   3.41160    72    68    62    71
 C    -1.24940   0.88380   3.69900    73    74    77    71
 C    -0.51270  -0.25250   3.93520    74    65    73    92
 C    -4.17450   1.53070   1.68600    75    78    76    83
 C    -3.15610   1.70430   2.57120    76    75    69    77
 C    -2.57180   0.64840   3.26320    77    76    73    80
 C    -4.66450   0.30470   1.43030    78    75    84    79
 C    -4.08800  -0.79170   2.02270    79    78    97    80
 C    -3.05110  -0.68820   2.94840    80    79    93    77
 C    -4.89460   0.90070  -0.83780    81    82    87    84
 C    -4.35560   2.11440  -0.57770    82    83    81    54
 C    -4.03940   2.45270   0.68760    83    82    57    75
 C    -5.08160  -0.01410   0.17170    84    88    78    81
 C    -4.35000  -1.72280  -1.22440    85    91    88    86
 C    -4.09710  -0.80950  -2.21400    86    87    39    85
 C    -4.33800   0.48420  -2.01200    87    86    81    36
 C    -4.78590  -1.32340  -0.00470    88    84    85    97
 C    -1.73550  -3.95740  -0.40970    89    90    96    42
 C    -2.93840  -3.36920  -0.20010    90    89    91    98
 C    -3.45360  -2.71800  -1.31630    91    85    90    45
 C    -0.95890  -1.53940   3.61310    92    13    93    74
 C    -2.17940  -1.80400   3.03520    93    92    80    94
 C    -2.23190  -2.92550   2.11390    94    98    95    93
 C    -1.00820  -3.66250   1.86970    95    96    11    94
 C    -0.83110  -4.18580   0.58880    96    89     7    95
 C    -4.17990  -1.84290   1.12800    97    79    88    98
 C    -3.24320  -2.86880   1.09730    98    97    90    94
