    98
C98-C2-196                                                                      
 C    -1.63790  -3.75890  -1.77270     1    15    61     2
 C    -2.46750  -3.73350  -0.65680     2     1     8     3
 C    -3.57300  -2.81970  -0.69420     3     4    62     2
 C    -4.03950  -2.20370   0.48920     4     6     5     3
 C    -4.57300  -0.92610   0.44970     5    47     4    19
 C    -3.35780  -2.48850   1.64650     6     9     4    17
 C    -0.40120  -4.38740   0.59430     7    10    13     8
 C    -1.80840  -4.05160   0.55680     8     9     2     7
 C    -2.32400  -3.38350   1.67790     9    12     6     8
 C     0.29940  -4.05260   1.74970    10    98    11     7
 C    -0.28220  -3.34310   2.77210    11    12    31    10
 C    -1.54650  -3.00500   2.73090    12    11     9    22
 C     0.40150  -4.39050  -0.57950    13    15     7    14
 C     1.81090  -4.06050  -0.53590    14    16    97    13
 C    -0.29940  -4.05940  -1.73530    15     1    64    13
 C     2.32540  -3.39790  -1.66500    16    66    93    14
 C    -3.12700  -1.53160   2.64930    17    22    18     6
 C    -3.58230  -0.25150   2.57870    18    17    19    26
 C    -4.37860   0.00230   1.46060    19    20     5    18
 C    -4.42320   1.23100   0.88490    20    21    19    46
 C    -3.75140   2.22290   1.44850    21    20    34    27
 C    -1.96330  -1.82410   3.28460    22    17    12    24
 C     0.28020  -1.24530   3.88560    23    24    31    29
 C    -1.08150  -0.86310   3.83010    24    22    23    25
 C    -1.46360   0.50420   3.72900    25    24    26    30
 C    -2.76380   0.78120   3.13740    26    27    18    25
 C    -2.94390   2.02540   2.55090    27    41    21    26
 C     2.54760  -0.70750   3.33250    28    85    92    29
 C     1.30690  -0.26490   3.82610    29    28    23    39
 C    -0.40270   1.51360   3.66970    30    40    39    25
 C     0.60910  -2.52640   3.37940    31    90    11    23
 C    -2.17750   3.67030  -1.34790    32    33    38    52
 C    -3.26660   3.11470  -0.73070    33    32    45    34
 C    -3.23870   3.20570   0.67150    34    21    35    33
 C    -2.19110   3.74340   1.36770    35    37    34    41
 C     0.04360   4.29980   1.33410    36    57    37    44
 C    -1.18110   4.37550   0.72910    37    35    36    38
 C    -1.19820   4.34960  -0.65380    38    59    32    37
 C     1.00670   1.12170   3.68930    39    29    30    42
 C    -0.72040   2.76500   3.05600    40    44    41    30
 C    -1.97630   2.97290   2.51250    41    27    40    35
 C     2.02390   1.96110   3.04400    42    43    86    39
 C     1.58530   3.12890   2.43820    43    44    42    81
 C     0.27560   3.51150   2.45650    44    43    40    36
 C    -3.85740   2.00380  -1.34720    45    33    46    48
 C    -4.52300   1.11780  -0.47890    46    47    20    45
 C    -4.65920  -0.20540  -0.71500    47    50    46     5
 C    -3.24320   1.42700  -2.51970    48    49    53    45
 C    -3.45720   0.07080  -2.71080    49    69    48    50
 C    -4.16770  -0.73200  -1.82780    50    47    62    49
 C    -0.27130   3.49710  -2.47580    51    52    55    59
 C    -1.58300   3.10810  -2.47060    52    51    53    32
 C    -2.02070   1.93890  -3.07020    53    52    48    56
 C     1.97270   2.94800  -2.51600    54    70    55    60
 C     0.71890   2.73420  -3.07260    55    51    54    67
 C    -1.00890   1.09050  -3.70980    56    68    67    53
 C     1.20200   4.35690   0.61360    57    36    81    58
 C     1.18490   4.37720  -0.77180    58    60    59    57
 C    -0.04070   4.30380  -1.36570    59    38    58    51
 C     2.20220   3.73860  -1.38640    60    58    83    54
 C    -1.78720  -2.87460  -2.82520    61    63    65     1
 C    -3.67690  -1.99970  -1.84220    62    63    50     3
 C    -2.76280  -1.99750  -2.83870    63    61    62    69
 C     0.28160  -3.36050  -2.76400    64    66    65    15
 C    -0.60370  -2.54950  -3.38630    65    61    64    74
 C     1.54650  -3.02390  -2.71910    66    64    16    75
 C     0.39950   1.48330  -3.68620    67    55    72    56
 C    -1.31440  -0.29570  -3.84350    68    69    74    56
 C    -2.55460  -0.73210  -3.35050    69    49    63    68
 C     2.94370   1.99950  -2.55510    70    54    76    71
 C     2.75510   0.75650  -3.14740    71    70    79    72
 C     1.45730   0.47540  -3.73800    72    73    71    67
 C     1.08410  -0.89460  -3.83250    73    74    75    72
 C    -0.27790  -1.26860  -3.89830    74    73    65    68
 C     1.96980  -1.84560  -3.27370    75    80    66    73
 C     3.76180   2.21390  -1.46300    76    77    83    70
 C     4.42880   1.21860  -0.90320    77    76    78    88
 C     4.38390  -0.01510  -1.47690    78    77    94    79
 C     3.57830  -0.27250  -2.58840    79    80    78    71
 C     3.13640  -1.55620  -2.64200    80    75    79    93
 C     2.18510   3.68960   1.31720    81    82    57    43
 C     3.27470   3.12700   0.70930    82    81    89    83
 C     3.25550   3.20760  -0.69290    83    76    60    82
 C     4.16880  -0.71360   1.81700    84    87    91    85
 C     3.45790   0.09300   2.69640    85    28    86    84
 C     3.24610   1.44560   2.49700    86    85    42    89
 C     4.65540  -0.20300   0.69240    87    84    88    94
 C     4.52890   1.12490   0.46170    88    87    77    89
 C     3.86600   2.01480   1.32390    89    82    88    86
 C     1.79210  -2.85970   2.82400    90    92    31    98
 C     3.68750  -1.98680   1.83890    91    92    84    96
 C     2.76520  -1.97770   2.82880    92    90    91    28
 C     3.36830  -2.51170  -1.63710    93    16    95    80
 C     4.58070  -0.94110  -0.46280    94    87    95    78
 C     4.04560  -2.22090  -0.48060    95    93    94    96
 C     3.57740  -2.82620   0.70670    96    95    91    97
 C     2.47110  -3.73770   0.67740    97    98    14    96
 C     1.63870  -3.75680   1.78700    98    10    90    97
