    98
C98-C1-10                                                                       
 C     2.69210   0.70120  -3.24990     1     6     2    59
 C     3.28970   1.71720  -2.54180     2     1     3     9
 C     4.36240   1.31770  -1.74510     3     4     2    58
 C     4.63880   1.95730  -0.56250     4     5    19     3
 C     3.77950   2.92260  -0.15940     5     4    20    10
 C     1.40570   0.77010  -3.69620     6     1     7    76
 C     0.56580   1.84850  -3.47670     7     6    15     8
 C     1.08450   2.87420  -2.60020     8     9    12     7
 C     2.43410   2.78690  -2.16310     9    10     2     8
 C     2.72590   3.33800  -0.91880    10     5    29     9
 C    -1.20720   3.34460  -2.02970    11    12    16    30
 C     0.12000   3.55130  -1.77250    12    11    28     8
 C    -2.63050   0.01660  -3.49060    13    77    95    14
 C    -1.31180   0.26410  -3.86740    14    13    75    15
 C    -0.80540   1.59390  -3.62600    15    16     7    14
 C    -1.67090   2.45220  -2.96800    16    96    11    15
 C     4.72700   1.13010   1.63640    17    37    18    19
 C     3.82930   2.08140   2.01080    18    20    17    27
 C     5.16140   1.06710   0.32780    19    36     4    17
 C     3.38410   2.99910   1.14120    20    18    21     5
 C     2.12520   3.48170   1.21630    21    20    29    25
 C    -1.10630   2.71420   2.72010    22    23    24    45
 C    -2.44290   2.75480   2.30440    23    88    33    22
 C    -0.15040   3.39350   1.92660    24    25    22    32
 C     1.20070   3.11770   2.19260    25    21    24    26
 C     1.62020   2.03650   3.05580    26    27    46    25
 C     2.91520   1.55600   2.89980    27    18    38    26
 C     0.42970   3.92300  -0.42560    28    29    12    32
 C     1.72950   3.78550  -0.07290    29    28    10    21
 C    -2.21020   3.51160  -1.09990    30    11    31    91
 C    -1.91100   3.74760   0.22900    31    33    30    32
 C    -0.56500   3.88760   0.60880    32    31    28    24
 C    -2.85440   3.25460   1.09090    33    31    23    93
 C     4.95120  -1.26080   0.39370    34    36    49    35
 C     4.52230  -1.19010   1.71130    35    37    44    34
 C     5.23610  -0.13530  -0.30910    36    34    19    58
 C     4.37360   0.00580   2.30750    37    35    17    38
 C     3.25170   0.23040   3.08180    38    27    37    42
 C    -0.10520  -1.23270   3.62050    39    40    41    52
 C    -1.38650  -0.74470   3.69360    40    39    47    66
 C     0.97550  -0.28660   3.70810    41    42    39    46
 C     2.28070  -0.73090   3.37660    42    38    41    43
 C     2.48070  -2.02330   2.80210    43    51    44    42
 C     3.60830  -2.16050   1.95230    44    35    50    43
 C    -0.69450   1.57060   3.50560    45    47    46    22
 C     0.64580   1.15250   3.58760    46    45    26    41
 C    -1.67630   0.61070   3.70550    47    89    40    45
 C     2.47950  -3.57240   0.52520    48    50    53    54
 C     4.27190  -2.28880  -0.20220    49    50    34    56
 C     3.55770  -2.88610   0.79450    50    48    49    44
 C     1.34920  -2.84000   2.54780    51    53    43    52
 C     0.03670  -2.51530   2.98190    52    51    39    68
 C     1.43460  -3.63670   1.39790    53    70    48    51
 C     2.02630  -3.69940  -0.75440    54    60    48    55
 C     2.58340  -2.99660  -1.81760    55    54    64    56
 C     3.77880  -2.25360  -1.53100    56    57    49    55
 C     4.02820  -1.03920  -2.20710    57    59    58    56
 C     4.74230  -0.01580  -1.58950    58    36    57     3
 C     3.03400  -0.63690  -3.07510    59    65    57     1
 C     0.71730  -4.01890  -0.65530    60    54    62    70
 C    -1.48280  -3.74070  -1.20260    61    72    62    71
 C    -0.18770  -3.74570  -1.64350    62    60    61    63
 C     0.22290  -2.94800  -2.74600    63    62    64    74
 C     1.61610  -2.58240  -2.78650    64    65    55    63
 C     1.90840  -1.36780  -3.38080    65    76    59    64
 C    -2.51900  -1.39200   3.22350    66    82    67    40
 C    -2.44640  -2.54570   2.46250    67    66    68    85
 C    -1.14090  -3.10680   2.33110    68    69    67    52
 C    -0.90880  -3.84280   1.13560    69    70    71    68
 C     0.35330  -4.02900   0.69560    70    53    69    60
 C    -1.85940  -3.82850   0.13880    71    86    69    61
 C    -2.46930  -3.07230  -1.84660    72    61    78    73
 C    -2.16560  -2.24590  -2.91700    73    77    72    74
 C    -0.80960  -2.11850  -3.34380    74    73    75    63
 C    -0.41630  -0.83580  -3.86290    75    76    14    74
 C     0.92050  -0.52440  -3.83520    76    75    65     6
 C    -3.06020  -1.19730  -3.03440    77    13    73    81
 C    -3.50590  -2.84050  -0.95790    78    80    86    72
 C    -4.88210  -1.23370   0.04070    79    80    97    84
 C    -4.38430  -1.80120  -1.11220    80    78    81    79
 C    -4.14720  -0.97530  -2.18370    81    80    94    77
 C    -3.49980  -0.45570   3.05280    82    89    83    66
 C    -4.46130  -0.59200   2.10550    83    84    82    90
 C    -4.43210  -1.67460   1.29380    84    83    85    79
 C    -3.46200  -2.67060   1.45230    85    86    84    67
 C    -3.08400  -3.27870   0.28480    86    71    85    78
 C    -4.34270   1.71990   1.69650    87    93    90    88
 C    -3.37900   1.83090   2.65830    88    89    23    87
 C    -2.97230   0.75480   3.33660    89    88    82    47
 C    -4.89630   0.50820   1.41110    90    87    97    83
 C    -3.32560   2.78850  -1.50330    91    96    92    30
 C    -4.27410   2.27350  -0.62960    92    93    91    98
 C    -4.01750   2.58560   0.69630    93    87    92    33
 C    -4.38820   0.38140  -2.10470    94    95    81    98
 C    -3.45960   0.95530  -2.92880    95    96    94    13
 C    -2.95430   2.15200  -2.64630    96    95    16    91
 C    -5.14080   0.14010   0.11690    97    90    98    79
 C    -4.85550   1.00530  -0.94250    98    97    94    92
