    98
C98-C2-182                                                                      
 C    -3.01470   1.76100  -2.64650     1     9     2    63
 C    -2.13470   2.81230  -2.46820     2     1    61     3
 C    -0.82490   2.67290  -3.04080     3     4     2    13
 C     0.19080   3.47840  -2.45190     4     6     5     3
 C    -0.06990   4.19820  -1.28600     5    62    16     4
 C     1.50350   3.11210  -2.58060     6     7     4    14
 C     1.86350   1.96600  -3.23390     7     6    19     8
 C     0.94570   1.04230  -3.75640     8     7    13    23
 C    -2.64890   0.59900  -3.27610     9     1    72    12
 C    -1.85680  -1.96770  -3.26060    10    93    71    11
 C    -0.93370  -1.03980  -3.76900    11    10    25    12
 C    -1.36080   0.34100  -3.77140    12     9    13    11
 C    -0.43120   1.41150  -3.69520    13    12     8     3
 C     2.49310   3.39300  -1.63900    14    20    15     6
 C     2.16880   3.98410  -0.45080    15    16    14    17
 C     0.88030   4.37520  -0.29510    16    15    28     5
 C     2.81990   3.51890   0.66000    17    15    22    26
 C     3.48810   0.37220  -2.75630    18    19    42    24
 C     3.09350   1.62980  -2.73190    19    18    20     7
 C     3.47980   2.45410  -1.71870    20    19    14    21
 C     4.21030   1.98880  -0.62000    21    22    20    43
 C     3.81030   2.56030   0.58090    22    39    17    21
 C     1.37750  -0.33650  -3.76270    23    24    25     8
 C     2.66330  -0.59900  -3.26520    24    98    18    23
 C     0.44450  -1.41280  -3.69930    25    23    11    96
 C     2.14100   3.37610   1.85980    26    32    27    17
 C     0.81720   3.72780   2.03960    27    26    28    29
 C     0.22420   4.31140   0.92140    28    46    16    27
 C    -0.00980   2.97570   2.93200    29    30    27    35
 C    -1.41630   3.01990   2.68960    30    31    45    29
 C    -2.16090   1.93790   3.13790    31    37    47    30
 C     2.71230   2.32690   2.51310    32    26    34    39
 C     2.42240   0.24560   3.44410    33    34    53    40
 C     1.95340   1.53900   3.36260    34    33    32    35
 C     0.57970   1.80820   3.58690    35    34    36    29
 C    -0.25520   0.67270   3.92210    36    37    54    35
 C    -1.60460   0.81380   3.69510    37    31    36    57
 C     4.21130   0.54080   1.79250    38    39    40    41
 C     3.77780   1.84050   1.74510    39    22    38    32
 C     3.51460  -0.22570   2.72670    40    85    33    38
 C     4.69120  -0.08170   0.60590    41    44    38    43
 C     4.30140  -0.11130  -1.76620    42    88    18    43
 C     4.64530   0.64440  -0.62440    43    42    21    41
 C     4.47740  -1.47020   0.53390    44    92    84    41
 C    -1.97650   3.68630   1.55790    45    46    49    30
 C    -1.10470   4.25500   0.67190    46    28    45    62
 C    -3.35030   1.55710   2.56440    47    48    50    31
 C    -3.85260   2.17950   1.49390    48    47    49    65
 C    -3.14800   3.22600   0.97540    49    48    45    60
 C    -3.52420   0.21760   2.70680    50    47    57    51
 C    -4.21800  -0.53910   1.76060    51    52    50    64
 C    -3.77880  -1.83960   1.70080    52    68    51    58
 C     1.57990  -0.82450   3.69710    53    77    54    33
 C     0.23040  -0.68360   3.92000    54    53    36    55
 C    -0.60760  -1.81590   3.57620    55    56    54    79
 C    -1.98000  -1.53980   3.34530    56    57    58    55
 C    -2.44450  -0.25170   3.43860    57    56    37    50
 C    -2.72160  -2.32950   2.47860    58    82    56    52
 C    -4.17560   2.13280  -0.63050    59    63    60    65
 C    -3.34770   3.19000  -0.39680    60    59    49    61
 C    -2.36180   3.58770  -1.28970    61    62    60     2
 C    -1.29450   4.19880  -0.71070    62     5    61    46
 C    -4.03330   1.44260  -1.76280    63    59    66     1
 C    -4.70750   0.08310   0.57910    64    65    51    67
 C    -4.50320   1.47020   0.52180    65    48    59    64
 C    -4.29730   0.11350  -1.78440    66    63    72    67
 C    -4.65290  -0.64870  -0.64800    67    69    66    64
 C    -3.81550  -2.56250   0.53660    68    52    73    69
 C    -4.21040  -1.98860  -0.66460    69    68    70    67
 C    -3.46660  -2.45710  -1.75330    70    71    76    69
 C    -3.08830  -1.62520  -2.76620    71    72    70    10
 C    -3.48650  -0.37210  -2.77610    72    71    66     9
 C    -2.82280  -3.51900   0.62800    73    75    68    82
 C    -0.87990  -4.37350  -0.31430    74    75    80    94
 C    -2.16760  -3.98270  -0.48580    75    74    76    73
 C    -2.48200  -3.39910  -1.67720    76    75    70    93
 C     2.14890  -1.94500   3.14440    77    85    53    78
 C     1.39750  -3.02110   2.69110    78    77    87    79
 C    -0.01220  -2.98100   2.92220    79    81    78    55
 C    -0.23850  -4.31440   0.91060    80    86    74    81
 C    -0.83510  -3.73230   2.02780    81    82    80    79
 C    -2.15240  -3.38080   1.83360    82    58    81    73
 C     3.13080  -3.22430   0.98350    83    84    91    87
 C     3.83290  -2.18110   1.51630    84    85    83    44
 C     3.33920  -1.56050   2.58620    85    84    40    77
 C     1.09210  -4.25450   0.66440    86    80    87    89
 C     1.95330  -3.68760   1.55640    87    86    83    78
 C     4.04560  -1.44670  -1.75470    88    92    42    98
 C     1.29260  -4.19450  -0.71600    89    94    90    86
 C     2.36590  -3.58240  -1.29210    90    89    91    97
 C     3.34340  -3.18370  -0.38630    91    92    83    90
 C     4.17130  -2.13680  -0.62270    92    88    91    44
 C    -1.49440  -3.12000  -2.61830    93    95    10    76
 C     0.07460  -4.19760  -1.30720    94    89    74    95
 C    -0.18240  -3.48160  -2.47900    95    93    94    96
 C     0.84230  -2.67830  -3.04960    96    95    97    25
 C     2.15120  -2.81030  -2.47690    97    98    90    96
 C     3.03290  -1.76380  -2.65180    98    24    97    88
