    98
C98-C1-109                                                                      
 C     3.17690   0.32110  -3.00060     1     2     6    73
 C     3.08610   1.64830  -2.70610     2     1     3     9
 C     3.83710   2.02220  -1.58520     3     4    70     2
 C     3.41330   3.03820  -0.79350     4     5     3    22
 C     2.32930   3.73260  -1.12440     5     4    24    10
 C     2.12230  -0.37260  -3.56510     6    14     1     7
 C     0.90430   0.21120  -3.87480     7     6    18     8
 C     0.76410   1.62960  -3.61780     8     9    12     7
 C     1.88160   2.32060  -3.03290     9    10     2     8
 C     1.57220   3.41440  -2.23570    10    30     5     9
 C    -1.61990   1.26810  -3.50800    11    12    90    19
 C    -0.56360   2.14890  -3.39210    12    11    29     8
 C     1.18130  -2.56800  -3.10360    13    14    75    17
 C     2.26010  -1.69510  -3.21410    14     6    72    13
 C    -1.03620  -3.66390  -1.90230    15    76    80    16
 C    -1.28540  -2.70130  -2.88700    16    15    96    17
 C    -0.11150  -2.07180  -3.46410    17    13    18    16
 C    -0.21110  -0.68420  -3.87470    18    19     7    17
 C    -1.44860  -0.09590  -3.74020    19    97    18    11
 C     2.76000   2.31070   2.55300    20    21    34    46
 C     2.84370   3.20310   1.51950    21    20    22    25
 C     3.71680   2.78090   0.51020    22     4    33    21
 C     0.31280   4.36690  -0.73570    23    26    24    30
 C     1.52350   4.23830  -0.14660    24    23     5    25
 C     1.69450   3.94750   1.22050    25    21    24    28
 C    -0.78060   4.33950  -0.00210    26    23    31    27
 C    -0.70200   4.06030   1.33600    27    47    26    28
 C     0.49190   3.77690   1.98070    28    27    45    25
 C    -0.83410   3.27070  -2.54980    29    30    12    32
 C     0.30030   3.83950  -2.00170    30    10    23    29
 C    -1.95870   3.91550  -0.52080    31    26    86    32
 C    -2.06900   3.37480  -1.81410    32    91    31    29
 C     4.42770   1.59250   0.51790    33    35    70    22
 C     3.49890   1.14350   2.58810    34    36    20    35
 C     4.37110   0.71230   1.57690    35    33    34    52
 C     2.76940   0.26750   3.32300    36    37    34    38
 C     2.89990  -1.03150   3.13870    37    36    44    51
 C     1.56610   0.80030   3.68770    38    36    46    42
 C    -1.97110  -0.12060   3.56630    39    40    41    66
 C    -3.12120   0.48850   3.02810    40    83    50    39
 C    -0.82520   0.70540   3.76920    41    42    39    49
 C     0.41480   0.02930   3.90270    42    38    41    43
 C     0.55060  -1.39140   3.68560    43    44    67    42
 C     1.81640  -1.84990   3.30720    44    60    37    43
 C     0.39650   2.78010   3.00330    45    46    28    49
 C     1.56580   2.09850   3.24090    46    38    45    20
 C    -1.90100   3.51670   1.66640    47    27    48    86
 C    -2.01220   2.57400   2.67410    48    50    47    49
 C    -0.84040   2.10970   3.32370    49    48    45    41
 C    -3.11780   1.78250   2.55200    50    48    40    88
 C     3.77150  -1.50800   2.19680    51    54    37    52
 C     4.50370  -0.67350   1.32790    52    51    35    53
 C     4.65210  -1.15370  -0.01330    53    56    69    52
 C     3.23840  -2.70910   1.84420    54    55    51    60
 C     3.42290  -3.17530   0.60980    55    54    58    56
 C     4.10280  -2.41470  -0.30530    56    55    71    53
 C     0.16810  -4.33610  -0.15690    57    65    59    76
 C     2.43050  -3.89780   0.02370    58    55    59    74
 C     1.24140  -4.18570   0.67590    59    57    58    62
 C     2.03610  -2.92900   2.49990    60    44    62    54
 C    -0.33510  -3.33720   2.40920    61    64    62    67
 C     0.98890  -3.65980   1.97830    62    60    59    61
 C    -2.61840  -3.14090   1.65930    63    64    68    78
 C    -1.39350  -3.72110   1.54460    64    63    65    61
 C    -1.10090  -4.16630   0.25830    65    57    80    64
 C    -1.83800  -1.54750   3.32330    66    68    67    39
 C    -0.56600  -2.18150   3.29670    67    66    43    61
 C    -2.86830  -2.13100   2.56130    68    84    63    66
 C     4.61590  -0.20910  -1.07720    69    70    73    53
 C     4.53090   1.12910  -0.78210    70    69    33     3
 C     3.50570  -2.72040  -1.50130    71    72    74    56
 C     3.39910  -1.78480  -2.44550    72    71    73    14
 C     3.94940  -0.56480  -2.25860    73    72     1    69
 C     2.48060  -3.60360  -1.33070    74    71    58    75
 C     1.34030  -3.57930  -2.12100    75    76    74    13
 C     0.21490  -4.03860  -1.51820    76    75    15    57
 C    -4.33980  -1.97810   0.89940    77    78    81    84
 C    -3.50080  -2.98740   0.58070    78    77    79    63
 C    -3.09660  -3.24070  -0.72830    79    80    78    95
 C    -1.89550  -3.85340  -0.83820    80    79    15    65
 C    -4.82740  -1.16370  -0.06830    81    77    85    98
 C    -4.63030   0.65420   1.39670    82    88    85    83
 C    -4.10140  -0.16880   2.34500    83    84    82    40
 C    -3.96600  -1.46990   2.10660    84    83    68    77
 C    -4.98710   0.17440   0.17500    85    82    93    81
 C    -2.72960   3.50140   0.53020    86    87    31    47
 C    -3.78030   2.65600   0.37140    87    86    88    94
 C    -4.02760   1.86130   1.48700    88    82    87    50
 C    -3.41850   0.20630  -2.80620    89    92    97    90
 C    -2.84490   1.44350  -2.88720    90    89    11    91
 C    -3.12650   2.46530  -1.97590    91    90    32    94
 C    -4.33270  -0.07470  -1.87450    92    89    98    93
 C    -4.66890   0.88590  -0.94860    93    85    92    94
 C    -4.05160   2.14100  -0.92550    94    93    87    91
 C    -3.49140  -2.34940  -1.75110    95    98    79    96
 C    -2.54000  -2.05120  -2.78670    96    97    16    95
 C    -2.56240  -0.74990  -3.27330    97    89    19    96
 C    -4.38710  -1.34190  -1.35560    98    92    81    95
