    98
C98-C2-127                                                                      
 C     3.13790  -2.88380   1.82280     1     2    16    12
 C     4.05570  -1.92290   1.69090     2     1     3    15
 C     3.88070  -0.75480   2.36030     3     2    65     7
 C     3.09940   1.79970   2.52340     4    73    64     6
 C     0.98680   1.23230   3.56140     5     6     9    76
 C     2.33720   0.87760   3.26750     6     4     7     5
 C     2.74450  -0.48350   3.17590     7     6     3    11
 C    -1.29830   0.44440   3.66180     8    77    25     9
 C     0.05640   0.14580   3.78770     9     8    10     5
 C     0.41450  -1.24500   3.60880    10    11     9    27
 C     1.77570  -1.52350   3.31400    11    12    10     7
 C     2.03760  -2.71040   2.61370    12     1    29    11
 C     4.24680  -2.40980  -0.58020    13    15    14    33
 C     3.32790  -3.40160  -0.43270    14    16    13    18
 C     4.66430  -1.68260   0.48200    15    13    41     2
 C     2.79530  -3.67000   0.77420    16    17    14     1
 C     1.51690  -4.05510   0.91480    17    16    20    29
 C     2.48700  -3.41800  -1.50820    18    14    34    19
 C     1.17760  -3.86170  -1.45810    19    18    36    20
 C     0.67250  -4.28190  -0.16220    20    23    17    19
 C    -2.48950  -3.43040   1.47920    21    93    30    22
 C    -1.18060  -3.87470   1.42510    22    21    28    23
 C    -0.68330  -4.28110   0.12120    23    20    24    22
 C    -1.52320  -4.04630  -0.95520    24    94    23    35
 C    -2.27970  -0.47410   3.37540    25    26     8    96
 C    -1.97210  -1.78920   3.13550    26    25    30    27
 C    -0.62610  -2.20850   3.21250    27    26    28    10
 C    -0.27120  -3.33390   2.37680    28    29    22    27
 C     1.04460  -3.51980   2.11070    29    28    12    17
 C    -2.89760  -2.42150   2.32050    30    21    26    98
 C     3.36700   0.19760  -2.78950    31    42    32    39
 C     4.24200  -0.40940  -1.90960    32    31    33    40
 C     3.98260  -1.76730  -1.75490    33    13    32    34
 C     2.88730  -2.40510  -2.34380    34    18    38    33
 C    -1.04520  -3.49930  -2.14560    35    36    52    24
 C     0.27430  -3.30920  -2.41040    36    35    19    37
 C     0.62630  -2.17790  -3.24090    37    38    36    54
 C     1.97290  -1.75900  -3.15320    38    39    34    37
 C     2.27580  -0.44270  -3.38070    39    38    56    31
 C     4.75030   0.36230  -0.81970    40    41    44    32
 C     4.90660  -0.35290   0.38640    41    15    65    40
 C     3.05120   1.51780  -2.71420    42    31    43    46
 C     3.56340   2.32550  -1.72070    43    42    45    44
 C     4.37520   1.73260  -0.72120    44    63    43    40
 C     2.70830   3.36890  -1.42050    45    61    43    49
 C     1.78650   1.69450  -3.27950    46    56    48    42
 C    -0.45650   2.55460  -3.10150    47    48    51    59
 C     0.94550   2.73240  -2.96680    48    46    49    47
 C     1.48250   3.59780  -2.02250    49    70    45    48
 C    -2.55630   2.97330  -1.99770    50    60    51    87
 C    -1.26850   3.39710  -2.25820    51    50    69    47
 C    -2.03940  -2.68840  -2.65070    52    89    35    53
 C    -1.77260  -1.49380  -3.34000    53    52    54    57
 C    -0.41230  -1.21240  -3.63180    54    53    55    37
 C    -0.05240   0.17900  -3.80300    55    56    59    54
 C     1.29980   0.47490  -3.67410    56    46    39    55
 C    -2.73690  -0.45180  -3.18760    57    58    91    53
 C    -2.32710   0.90720  -3.26390    58    60    57    59
 C    -0.98230   1.26130  -3.56380    59    58    55    47
 C    -3.07630   1.81590  -2.49910    60    50    85    58
 C     2.58440   3.82670  -0.13810    61    62    66    45
 C     3.23430   3.21200   0.84670    62    61    63    73
 C     4.13470   2.23280   0.57940    63    62    64    44
 C     4.13120   1.43370   1.68200    64    65    63     4
 C     4.51850   0.18730   1.59620    65    64     3    41
 C     1.34770   4.32410   0.05520    66    61    70    67
 C     0.69050   4.18230   1.27740    67    68    66    72
 C    -0.66080   4.23550   1.17650    68    67    74    71
 C    -0.67170   4.20910  -1.24850    69    70    71    51
 C     0.67260   4.26410  -1.15200    70    69    49    66
 C    -1.34290   4.33120  -0.03150    71    88    68    69
 C     1.28810   3.37480   2.28720    72    73    67    76
 C     2.57280   2.95880   2.03630    73     4    72    62
 C    -1.47910   3.57550   2.04580    74    68    78    75
 C    -0.93620   2.70440   2.98500    75    77    74    76
 C     0.46360   2.53340   3.11350    76    75    72     5
 C    -1.78580   1.67320   3.28730    77    75     8    81
 C    -2.71090   3.37200   1.44580    78    88    80    74
 C    -4.36420   1.73120   0.74540    79    86    80    83
 C    -3.55470   2.32000   1.74930    80    81    78    79
 C    -3.05080   1.49500   2.73110    81    96    80    77
 C    -4.88460  -0.35170  -0.37620    82    95    84    83
 C    -4.73730   0.36020   0.83470    83    82    79    97
 C    -4.47630   0.18930  -1.58180    84    85    91    82
 C    -4.09530   1.44380  -1.64670    85    84    86    60
 C    -4.11710   2.24810  -0.54920    86    87    85    79
 C    -3.22890   3.23590  -0.81300    87    88    86    50
 C    -2.57980   3.84600   0.16920    88    87    71    78
 C    -3.13660  -2.87550  -1.85650    89    90    94    52
 C    -4.05120  -1.91390  -1.71210    90    89    91    95
 C    -3.86220  -0.74670  -2.36890    91    90    84    57
 C    -4.24520  -2.41580   0.57200    92    95    98    93
 C    -3.33110  -3.40950   0.40310    93    94    92    21
 C    -2.80660  -3.66830  -0.80930    94    24    93    89
 C    -4.65240  -1.68850  -0.49550    95    92    82    90
 C    -3.37290   0.17800   2.79900    96    81    97    25
 C    -4.24840  -0.42920   1.92050    97    96    98    83
 C    -4.00390  -1.78220   1.75150    98    92    97    30
