    98
C98-C1-78                                                                       
 C     3.34830   2.12540   2.10920     1     2     8    59
 C     3.98250   0.92060   2.06640     2     1     3     7
 C     4.69690   0.69170   0.87440     3     4    58     2
 C     4.88550  -0.55970   0.40390     4     5     3    12
 C     4.40900  -1.59780   1.10860     5     4    13     6
 C     3.66200  -1.41350   2.25090     6    23     5     7
 C     3.36510  -0.15800   2.78300     7     6     2    19
 C     2.20980   2.30680   2.84630     8     1    71     9
 C     1.51470   1.29530   3.54470     9     8    19    18
 C     4.20960  -1.57940  -1.59750    10    12    11    27
 C     3.81420  -2.67470  -0.89840    11    13    10    36
 C     4.79390  -0.54140  -0.96250    12    43    10     4
 C     3.92220  -2.68490   0.45390    13    14    11     5
 C     2.95160  -3.24580   1.19030    14    13    15    23
 C     1.90490  -3.93160   0.60370    15    16    14    35
 C     0.80650  -3.99290   1.39260    16    37    15    24
 C    -0.43920   2.66560   3.16840    17    75    70    18
 C     0.10860   1.48810   3.73050    18    17    94     9
 C     2.09620  -0.00590   3.49120    19     9    21     7
 C    -0.24360  -0.93470   3.84340    20    97    94    21
 C     1.18930  -1.13320   3.63200    21    22    19    20
 C     1.60870  -2.36520   3.01970    22    23    24    21
 C     2.79360  -2.46060   2.34250    23     6    22    14
 C     0.66050  -3.25900   2.57400    24    98    22    16
 C    -0.48970  -0.81060  -3.91850    25    26    48    34
 C     0.84690  -1.07520  -3.74820    26    25    31    41
 C     3.32460  -1.37480  -2.62270    27    10    29    28
 C     3.01320  -0.09490  -3.09520    28    27    41    42
 C     2.41560  -2.41920  -2.59110    29    31    36    27
 C     0.12930  -3.19270  -2.57420    30    33    31    39
 C     1.15680  -2.33470  -3.12760    31    29    26    30
 C    -2.23510  -3.18260  -1.94730    32    40    33    53
 C    -1.21710  -2.82470  -2.82280    33    34    32    30
 C    -1.49610  -1.67070  -3.51660    34    33    55    25
 C     1.72820  -3.91010  -0.81690    35    36    39    15
 C     2.71140  -3.21710  -1.50000    36    11    35    29
 C    -0.42810  -4.21570   0.88860    37    16    89    38
 C    -0.66720  -4.23300  -0.48740    38    40    37    39
 C     0.41650  -3.96660  -1.37010    39    38    35    30
 C    -1.96010  -3.85700  -0.79810    40    32    38    92
 C     1.72200   0.07810  -3.67570    41    28    26    44
 C     3.68890   0.97770  -2.43600    42    46    43    28
 C     4.55300   0.72320  -1.36220    43    12    58    42
 C     1.10840   1.39330  -3.62200    44    45    49    41
 C     1.77910   2.37980  -2.91730    45    46    44    61
 C     3.01090   2.17370  -2.34820    46    45    42    56
 C    -2.34060   0.33270  -3.63170    47    50    55    48
 C    -1.02590   0.45510  -3.95580    48    47    25    49
 C    -0.28120   1.59850  -3.72000    49    48    44    52
 C    -2.98710   1.33840  -3.05110    50    47    88    51
 C    -2.30580   2.48540  -2.73560    51    66    50    52
 C    -0.96240   2.67640  -3.03760    52    51    60    49
 C    -3.40200  -2.43210  -1.74680    53    83    54    32
 C    -3.65900  -1.26700  -2.43010    54    53    55    87
 C    -2.66330  -0.94960  -3.34180    55    47    34    54
 C     3.11700   3.02700  -1.26460    56    62    57    46
 C     3.87840   2.68410  -0.16590    57    58    59    56
 C     4.58830   1.53270  -0.23340    58    57    43     3
 C     3.32230   3.01970   1.03430    59    65    57     1
 C    -0.25420   3.54800  -2.17740    60    61    52    63
 C     1.12210   3.38860  -2.20730    61    62    60    45
 C     1.94810   3.74910  -1.17350    62    61    64    56
 C    -0.85340   4.08380  -0.96750    63    68    67    60
 C     1.43000   4.18440   0.02360    64    62    65    68
 C     2.17830   3.75180   1.12360    65    71    59    64
 C    -2.92000   3.01010  -1.62850    66    51    80    67
 C    -2.22360   3.76020  -0.68430    67    66    78    63
 C     0.03280   4.33610   0.13380    68    69    64    63
 C    -0.48470   4.07000   1.40780    69    77    70    68
 C     0.28420   3.53720   2.41130    70    71    17    69
 C     1.56970   3.37100   2.27010    71    70    65     8
 C    -4.36140   0.72270   1.69850    72    76    73    81
 C    -3.68770   1.85730   2.03550    73    72    79    74
 C    -2.64200   1.83730   2.95900    74    75    73    93
 C    -1.72640   2.81260   2.74770    75    74    17    77
 C    -4.01770  -0.41930   2.28810    76    72    84    95
 C    -1.75350   3.67370   1.64180    77    69    78    75
 C    -2.68390   3.57240   0.65020    78    77    79    67
 C    -3.70420   2.67670   0.91810    79    82    78    73
 C    -3.96660   2.14850  -1.32170    80    82    88    66
 C    -4.76150   0.74830   0.38610    81    82    72    86
 C    -4.35860   1.98000  -0.05540    82    80    79    81
 C    -3.81430  -2.62200  -0.45270    83    53    92    85
 C    -4.11400  -1.59000   1.60620    84    76    90    85
 C    -4.48130  -1.62100   0.24490    85    83    84    86
 C    -4.78250  -0.40590  -0.42200    86    81    85    87
 C    -4.37200  -0.22400  -1.78030    87    88    54    86
 C    -3.99700   1.07840  -2.16690    88    80    50    87
 C    -1.35370  -3.77050   1.80570    89    91    37    98
 C    -3.19160  -2.43490   2.17370    90    91    84    96
 C    -2.61470  -3.43300   1.45590    91    89    90    92
 C    -2.92960  -3.50680   0.12850    92    91    83    40
 C    -2.19460   0.62530   3.55140    93    95    74    94
 C    -0.79960   0.40460   3.89470    94    18    20    93
 C    -2.96810  -0.47230   3.19040    95    96    76    93
 C    -2.46270  -1.72650   3.13970    96    95    97    90
 C    -1.14300  -1.99090   3.45660    97    98    96    20
 C    -0.65240  -3.10090   2.80180    98    24    97    89
