    98
C98-C1-190                                                                      
 C     4.29660   0.88820   1.11520     1    15    63     2
 C     4.18530  -0.42020   1.57840     2     1     8     3
 C     4.29220  -1.45980   0.59190     3    64     4     2
 C     3.58300  -2.67060   0.78410     4     6     5     3
 C     3.05720  -3.34690  -0.31060     5    47    19     4
 C     2.83440  -2.83460   1.91460     6     4     9    17
 C     2.67530   0.53820   3.30980     7    10    13     8
 C     3.38000  -0.58800   2.72920     8     9     2     7
 C     2.76410  -1.83960   2.85810     9    12     6     8
 C     1.47610   0.26550   3.95240    10    11    98     7
 C     0.97070  -0.99450   4.05160    11    12    31    10
 C     1.58300  -2.03260   3.49760    12    11     9    23
 C     2.76850   1.83750   2.77180    13    15     7    14
 C     1.64440   2.75860   2.83190    14    16    97    13
 C     3.64420   1.96040   1.69000    15    74     1    13
 C     1.57180   3.70550   1.81450    16    93    73    14
 C     1.63760  -3.57070   1.95190    17    23    18     6
 C     1.07170  -4.17260   0.84500    18    17    19    20
 C     1.86060  -4.05250  -0.28990    19    33    18     5
 C    -0.35310  -4.25980   0.74550    20    18    21    25
 C    -0.88360  -4.26520  -0.59900    21    22    32    20
 C    -2.18500  -3.80810  -0.76650    22    28    34    21
 C     0.85800  -3.05960   2.94480    23    17    12    24
 C    -0.53240  -3.09210   2.94270    24    23    30    25
 C    -1.18410  -3.73120   1.82820    25    27    24    20
 C    -3.07890  -2.24790   2.27340    26    29    40    27
 C    -2.51080  -3.29360   1.53720    27    28    26    25
 C    -2.98570  -3.35920   0.24060    28    22    27    42
 C    -2.39470  -1.60100   3.25870    29    30    26    90
 C    -1.14980  -2.00250   3.62480    30    29    31    24
 C    -0.37310  -0.96510   4.12300    31    11    87    30
 C    -0.02490  -4.07790  -1.71990    32    33    36    21
 C     1.31530  -3.97560  -1.54280    33    32    19    46
 C    -2.60170  -3.13250  -1.89650    34    35    37    22
 C    -1.73430  -2.84360  -2.86280    35    34    36    57
 C    -0.48100  -3.32070  -2.80320    36    35    44    32
 C    -3.59840  -2.26880  -1.62340    37    34    42    38
 C    -3.71880  -1.03990  -2.28320    38    39    37    56
 C    -4.28400  -0.04820  -1.53240    39    58    38    43
 C    -3.98210  -1.33650   1.74720    40    41    26    84
 C    -4.40210  -1.42200   0.44730    41    42    40    43
 C    -3.89550  -2.44510  -0.28740    42    41    37    28
 C    -4.62990  -0.23000  -0.18900    43    41    86    39
 C     0.31080  -2.43610  -3.51530    44    45    49    36
 C     1.64220  -2.30540  -3.30050    45    44    46    52
 C     2.13410  -3.17310  -2.32240    46    47    33    45
 C     3.20490  -2.84850  -1.57380    47    48    46     5
 C     3.85130  -1.70750  -1.78220    48    47    64    53
 C    -0.47610  -1.36880  -3.90410    49    57    44    50
 C     0.01660  -0.08030  -4.06120    50    49    61    51
 C     1.44680   0.10500  -3.85340    51    52    55    50
 C     2.24360  -1.04020  -3.49020    52    53    45    51
 C     3.39230  -0.80630  -2.73480    53    67    48    52
 C     0.94650   2.39280  -3.31320    54    70    62    55
 C     1.91830   1.40760  -3.44060    55    54    66    51
 C    -2.72740  -0.67080  -3.24420    56    57    38    60
 C    -1.77200  -1.63590  -3.51840    57    35    49    56
 C    -3.96100   1.25920  -1.72180    58    39    79    59
 C    -3.00880   1.69960  -2.65500    59    58    82    60
 C    -2.32230   0.69220  -3.42930    60    56    59    61
 C    -0.95120   0.95560  -3.85130    61    62    50    60
 C    -0.41170   2.18550  -3.51030    62    83    61    54
 C     4.44160   1.21150  -0.22060    63    65    68     1
 C     4.42930  -1.04100  -0.74610    64    65    48     3
 C     4.45650   0.25410  -1.13480    65    63    64    67
 C     3.10010   1.59600  -2.64680    66    67    69    55
 C     3.79130   0.43440  -2.33290    67    53    65    66
 C     3.87260   2.40360  -0.49830    68    63    74    69
 C     3.19560   2.67830  -1.70830    69    71    68    66
 C     1.08480   3.46910  -2.44900    70    71    75    54
 C     2.16410   3.61730  -1.60600    71    70    69    72
 C     1.83720   4.16660  -0.35680    72    73    78    71
 C     2.46450   3.75250   0.77630    73    74    72    16
 C     3.46680   2.89970   0.70770    74    73    68    15
 C    -0.17940   3.90280  -2.11350    75    70    83    77
 C    -1.68880   4.19600  -0.36440    76    77    81    94
 C    -0.45650   4.44770  -0.87480    77    78    76    75
 C     0.56870   4.51700   0.01110    78    77    72    93
 C    -4.15780   1.87560  -0.50420    79    80    86    58
 C    -3.46690   2.95770  -0.17920    80    79    81    91
 C    -2.63550   3.51560  -1.08910    81    80    76    82
 C    -2.37030   2.91300  -2.32820    82    83    81    59
 C    -1.10080   3.13080  -2.78800    83    82    62    75
 C    -3.79180  -0.11170   2.37640    84    90    85    40
 C    -4.01210   1.10040   1.76350    85    84    86    92
 C    -4.48720   0.97680   0.45260    86    79    43    85
 C    -0.74440   0.36940   4.11320    87    89    98    31
 C    -2.09480   2.06170   3.06340    88    89    92    96
 C    -1.97480   0.78220   3.66880    89    87    90    88
 C    -2.81020  -0.26570   3.30280    90    84    89    29
 C    -2.99330   3.14540   1.10220    91    94    80    92
 C    -3.17230   2.20600   2.10950    92    91    85    88
 C     0.38560   4.21500   1.36270    93    16    95    78
 C    -1.88470   3.92490   0.99220    94    91    95    76
 C    -0.83800   3.84580   1.89260    95    94    93    96
 C    -0.88810   2.88880   2.94530    96    95    97    88
 C     0.39120   2.37950   3.41480    97    98    14    96
 C     0.39530   1.13250   3.99520    98    97    87    10
