    98
C98-C2-251                                                                      
 C    -2.85890  -2.32310  -2.34250     1     2    59     4
 C    -1.74810  -3.16190  -2.45040     2    57     3     1
 C    -1.32050  -4.00300  -1.45250     3     6    22     2
 C    -3.60640  -2.42690  -1.11930     4     8     5     1
 C    -3.11860  -3.31830  -0.14930     5     6    11     4
 C    -1.99720  -4.06660  -0.31700     6     3     5    17
 C    -4.24630  -0.15900  -1.34660     7     8    14    60
 C    -4.27150  -1.30410  -0.60490     8     7     9     4
 C    -4.30190  -1.09670   0.78170     9    10    12     8
 C    -3.72000  -1.95480   1.65080    10    11     9    37
 C    -3.16680  -3.07640   1.19730    11    10    20     5
 C    -4.24040   0.15470   1.36780    12    13     9    87
 C    -4.27460   1.30020   0.62660    13    12    14    95
 C    -4.31330   1.09270  -0.76210    14    71     7    13
 C     0.60780  -3.80060   2.02230    15    16    23    18
 C     0.05770  -4.33030   0.88510    16    15    17    21
 C    -1.32790  -4.22980   0.85940    17     6    20    16
 C    -0.14720  -3.13080   2.99490    18    41    19    15
 C    -1.50500  -2.94380   2.90780    19    18    20    38
 C    -2.07490  -3.58590   1.82470    20    11    17    19
 C     0.82130  -4.28510  -0.30880    21    22    16    25
 C     0.04140  -4.13550  -1.47210    22    44     3    21
 C     1.88270  -3.29710   2.04010    23    15    34    24
 C     2.71340  -3.24780   0.91270    24    23    29    25
 C     2.15220  -3.74350  -0.33190    25    21    26    24
 C     2.60860  -3.15950  -1.56400    26    27    43    25
 C     3.59990  -2.18140  -1.47780    27    30    45    26
 C     3.76910  -1.28170   2.03120    28    36    31    29
 C     3.69990  -2.21430   0.94310    29    30    24    28
 C     4.12170  -1.73440  -0.29270    30    27    33    29
 C     4.19490   0.03160   1.72970    31    32    84    28
 C     4.52030   0.44110   0.48230    32    33    31    54
 C     4.52050  -0.42900  -0.51260    33    32    53    30
 C     1.92760  -2.37100   3.06830    34    36    23    41
 C     2.39980  -0.21600   3.72620    35    83    36    42
 C     2.84680  -1.36460   3.09210    36    34    35    28
 C    -3.19000  -1.27100   2.71880    37    87    10    38
 C    -2.05010  -1.71010   3.39170    38    37    39    19
 C    -1.22730  -0.70070   3.98220    39    38    40    89
 C     0.15550  -1.04270   4.13840    40    42    41    39
 C     0.65090  -2.23480   3.61380    41    18    40    34
 C     1.10320  -0.04950   4.19200    42    92    40    35
 C     1.73290  -3.01640  -2.68220    43    44    47    26
 C     0.45910  -3.47930  -2.58550    44    22    43    57
 C     3.70360  -1.13160  -2.37440    45    46    53    27
 C     2.81580  -1.00660  -3.35490    46    45    47    49
 C     1.84110  -1.92030  -3.52340    47    46    43    55
 C     1.91310   2.37480  -3.07800    48    50    79    62
 C     2.38880   0.22740  -3.73280    49    46    50    61
 C     2.84390   1.37760  -3.10220    50    48    49    51
 C     3.77410   1.29410  -2.05020    51    50    53    52
 C     3.69970   2.22310  -0.95810    52    54    78    51
 C     4.20320  -0.01780  -1.76010    53    33    45    51
 C     4.11890   1.75150   0.28110    54    75    32    52
 C     0.75420  -1.25290  -4.07270    55    61    56    47
 C    -0.54630  -1.66240  -3.88610    56    55    57    58
 C    -0.64530  -2.84600  -3.18330    57     2    56    44
 C    -1.60460  -0.70680  -3.82510    58    56    59    64
 C    -2.77480  -1.08260  -3.05900    59    60     1    58
 C    -3.52980  -0.04570  -2.53570    60    66    59     7
 C     1.08960   0.06640  -4.19830    61    55    63    49
 C     0.62810   2.23820  -3.60800    62    67    48    63
 C     0.13260   1.04530  -4.13960    63    61    62    64
 C    -1.24700   0.70780  -3.97110    64    65    63    58
 C    -2.06960   1.71350  -3.37590    65    66    64    68
 C    -3.20720   1.27880  -2.69790    66    60    71    65
 C    -0.16580   3.13670  -2.98440    67    62    68    72
 C    -1.52080   2.94100  -2.89170    68    67    69    65
 C    -2.09100   3.57000  -1.79680    69    70    74    68
 C    -3.19170   3.07590  -1.16720    70    71    69    94
 C    -3.74290   1.96020  -1.62990    71    70    14    66
 C     0.59540   3.80240  -2.02150    72    73    79    67
 C     0.04780   4.32230  -0.88070    73    72    74    81
 C    -1.33680   4.21880  -0.83420    74    93    69    73
 C     3.60140   2.19040   1.46790    75    54    84    76
 C     2.60570   3.16290   1.55620    76    75    86    77
 C     2.14440   3.74050   0.31960    77    81    76    78
 C     2.70460   3.24910  -0.92910    78    79    52    77
 C     1.86980   3.30140  -2.04980    79    72    48    78
 C     0.03340   4.13320   1.47930    80    85    96    81
 C     0.80790   4.27740   0.31340    81    80    73    77
 C     1.85850   1.93340   3.52280    82    83    86    92
 C     2.83290   1.01390   3.34980    83    84    82    35
 C     3.70670   1.14090   2.36110    84    83    31    75
 C     0.45740   3.48440   2.59370    85    86    80    90
 C     1.73200   3.02690   2.67780    86    85    82    76
 C    -3.52470   0.05090   2.55880    87    37    88    12
 C    -2.76810   1.08560   3.08520    88    87    98    89
 C    -1.58980   0.71280   3.84380    89    91    88    39
 C    -0.64360   2.85400   3.20100    90    97    91    85
 C    -0.53300   1.66880   3.90400    91    92    90    89
 C     0.76850   1.27080   4.08080    92    42    91    82
 C    -2.01610   4.06420   0.33840    93    96    94    74
 C    -3.14240   3.32690   0.17710    94    93    70    95
 C    -3.61530   2.42920   1.14840    95    94    13    98
 C    -1.33260   4.00020   1.47170    96    93    80    97
 C    -1.75470   3.16780   2.47970    97    90    96    98
 C    -2.86030   2.32610   2.37010    98    97    88    95
