    98
C98-C1-163                                                                      
 C    -3.24550   0.62000  -2.82420     1     2     6    60
 C    -3.48440  -0.70330  -2.59780     2     1     3     9
 C    -4.31410  -0.96730  -1.49190     3     4    59     2
 C    -4.14980  -2.08550  -0.74860     4     5     3    29
 C    -3.27360  -2.99500  -1.13550     5     4    20    10
 C    -2.06160   1.06210  -3.37710     6    73     1     7
 C    -0.99650   0.22950  -3.74460     7     6    17     8
 C    -1.19880  -1.19360  -3.55090     8     7    12     9
 C    -2.46710  -1.61780  -2.97650     9    10     2     8
 C    -2.46200  -2.80000  -2.24250    10    14     5     9
 C     1.25700  -1.45520  -3.51900    11    15    12    16
 C    -0.03700  -2.04940  -3.40300    12    11     8    13
 C    -0.13420  -3.28020  -2.63720    13    14    24    12
 C    -1.36100  -3.56210  -2.06590    14    10    13    21
 C     2.33070  -2.13670  -2.88910    15    23    98    11
 C     1.42310  -0.04010  -3.69890    16    18    17    11
 C     0.30980   0.84340  -3.76720    17    16     7    75
 C     2.64100   0.50210  -3.24880    18    76    97    16
 C    -0.43400  -4.50150  -0.13790    19    21    22    25
 C    -2.61680  -3.74620  -0.20640    20    21     5    27
 C    -1.50390  -4.17160  -0.83120    21    19    20    14
 C     0.78820  -4.40460  -0.68630    22    19    39    24
 C     2.19270  -3.24490  -2.10200    23    24    15    37
 C     0.98010  -3.82490  -1.95050    24    23    22    13
 C    -0.38810  -4.25990   1.21260    25    31    19    26
 C    -1.44160  -3.66650   1.89240    26    25    27    35
 C    -2.67080  -3.47180   1.17910    27    28    20    26
 C    -3.56260  -2.45670   1.54550    28    30    27    29
 C    -4.34940  -1.81930   0.57750    29     4    43    28
 C    -3.17690  -1.62590   2.57590    30    41    28    36
 C     0.92890  -4.07340   1.50740    31    25    33    39
 C     2.60450  -2.69140   2.31470    32    51    33    40
 C     1.33510  -3.21330   2.51340    33    31    32    34
 C     0.34390  -2.47250   3.22650    34    33    35    53
 C    -1.03990  -2.75340   2.92600    35    36    26    34
 C    -1.95530  -1.75470   3.20780    36    30    55    35
 C     3.16500  -3.20910  -1.10340    37    88    38    23
 C     2.89260  -3.66780   0.16230    38    39    40    37
 C     1.68410  -4.25310   0.34440    39    38    22    31
 C     3.38780  -2.91560   1.18800    40    38    91    32
 C    -3.56360  -0.30490   2.65410    41    42    30    45
 C    -4.37920   0.27910   1.70980    42    44    43    41
 C    -4.74540  -0.50600   0.64090    43    29    42    59
 C    -4.13810   1.60950   1.48230    44    42    57    50
 C    -2.56880   0.39480   3.31240    45    55    41    49
 C     1.31600   1.59060   3.53450    46    65    47    56
 C    -0.00470   1.27530   3.74970    47    46    54    48
 C    -0.99010   2.22250   3.27180    48    49    47    67
 C    -2.30910   1.73850   3.08580    49    45    50    48
 C    -3.15600   2.32200   2.15380    50    69    44    49
 C     2.95810  -1.47830   2.81640    51    32    52    85
 C     2.04930  -0.70510   3.51690    52    56    51    53
 C     0.71930  -1.15370   3.73150    53    52    54    34
 C    -0.28690  -0.13270   3.89920    54    55    53    47
 C    -1.58750  -0.50310   3.66710    55    54    45    36
 C     2.31480   0.64130   3.44110    56    52    46    87
 C    -4.25310   2.14280   0.21180    57    61    44    58
 C    -4.51860   1.34020  -0.88710    58    59    60    57
 C    -4.77390   0.02350  -0.64360    59    58     3    43
 C    -3.77810   1.61930  -2.01950    60    64    58     1
 C    -3.38680   3.20360   0.13940    61    57    63    69
 C    -1.53540   4.10460  -0.92530    62    63    71    70
 C    -2.75300   3.52660  -1.03420    63    62    61    64
 C    -2.93100   2.67900  -2.10030    64    60    63    73
 C     1.72930   2.70780   2.85210    65    46    80    66
 C     0.84350   3.58810   2.24720    66    65    83    67
 C    -0.55210   3.37180   2.47340    67    66    68    48
 C    -1.45950   3.86890   1.48430    68    69    70    67
 C    -2.71980   3.33480   1.35520    69    50    68    61
 C    -0.91570   4.34740   0.29070    70    84    62    68
 C    -0.53520   3.89130  -1.85990    71    77    62    72
 C    -0.65600   2.94860  -2.88850    72    73    71    75
 C    -1.89030   2.36420  -2.95730    73    72     6    64
 C     1.74150   2.68610  -2.78810    74    76    79    75
 C     0.48680   2.24010  -3.32500    75    72    74    17
 C     2.78600   1.78740  -2.80280    76    18    74    95
 C     0.64870   4.17990  -1.27550    77    71    79    84
 C     2.82400   3.58510  -0.79050    78    94    82    79
 C     1.81660   3.66040  -1.74440    79    77    78    74
 C     2.98420   2.43020   2.36510    80    81    87    65
 C     3.41480   2.97540   1.22280    81    80    82    92
 C     2.58070   3.81790   0.55520    82    81    83    78
 C     1.33070   4.17190   1.03750    83    84    82    66
 C     0.41270   4.45380   0.07310    84    70    83    77
 C     3.97770  -0.95010   2.01270    85    91    86    51
 C     4.19620   0.40000   1.89030    86    85    87    93
 C     3.35780   1.16730   2.69380    87    80    56    86
 C     3.94960  -2.10570  -1.31230    88    98    37    90
 C     4.74020   0.02580  -0.46100    89    90    96    93
 C     4.54550  -1.36360  -0.27940    90    91    88    89
 C     4.20220  -1.82440   0.98360    91    85    40    90
 C     4.19410   2.23630   0.36840    92    94    81    93
 C     4.62140   0.92860   0.64160    93    92    86    89
 C     3.81520   2.65610  -0.87710    94    95    78    92
 C     3.82240   1.78630  -1.88300    95    94    96    76
 C     4.29780   0.53050  -1.70860    96    95    97    89
 C     3.62680  -0.22620  -2.62580    97    98    96    18
 C     3.46340  -1.51160  -2.44260    98    97    88    15
