    98
C98-C2-174                                                                      
 C    -1.54440   2.05560  -3.42670     1     7    62     2
 C    -1.11280   3.17100  -2.70960     2     1    60     3
 C     0.30980   3.35460  -2.56380     3     4     2    10
 C     0.74520   4.04510  -1.39990     4     6     5     3
 C    -0.19730   4.38920  -0.42500     5    61    15     4
 C     2.01140   3.81840  -0.90290     6    12     4    13
 C    -0.68840   1.14260  -3.94800     7     1     9    71
 C     1.34990   0.11320  -3.94810     8    25     9    72
 C     0.67050   1.30380  -3.86640     9     7     8    10
 C     1.24190   2.40630  -3.16940    10     9    11     3
 C     2.56620   2.20160  -2.61180    11    12    26    10
 C     2.90070   2.94460  -1.48630    12     6    22    11
 C     2.31390   3.87450   0.44860    13    17    14     6
 C     1.33300   4.09180   1.38640    14    15    16    13
 C     0.08760   4.35880   0.92970    15    14    30     5
 C     1.41240   3.35710   2.54310    16    20    14    28
 C     3.37560   3.05310   0.69470    17    13    19    22
 C     4.06520   1.14180   1.82800    18    19    23    40
 C     3.47950   2.36630   1.89100    19    18    20    17
 C     2.44720   2.50320   2.78100    20    16    19    42
 C     4.40760   1.27830  -0.57580    21    22    23    24
 C     3.77820   2.49700  -0.50770    22    21    17    12
 C     4.57940   0.63000   0.66040    23    91    18    21
 C     4.18650   0.49980  -1.72990    24    21    27    26
 C     2.59900  -0.05160  -3.43960    25     8    94    26
 C     3.26550   0.95510  -2.74070    26    25    11    24
 C     4.28280  -0.89570  -1.53930    27    98    90    24
 C     0.27820   2.86030   3.15960    28    34    29    16
 C    -1.00100   3.13900   2.72960    29    28    30    31
 C    -1.05270   3.95580   1.59830    30    47    15    29
 C    -2.02930   2.19530   2.97200    31    29    32    36
 C    -3.15420   2.23860   2.06620    32    33    46    31
 C    -3.90390   1.07450   1.92280    33    39    48    32
 C     0.62410   1.66790   3.75160    34    28    42    35
 C    -0.29140   0.66450   3.97850    35    34    44    36
 C    -1.67830   0.93890   3.63840    36    38    35    31
 C    -1.97480  -1.45060   3.48930    37    45    38    54
 C    -2.51540  -0.17810   3.41870    38    37    39    36
 C    -3.61170  -0.08520   2.57790    39    33    38    56
 C     3.60010   0.07180   2.60140    40    83    41    18
 C     2.49990   0.17550   3.44180    41    42    40    43
 C     1.96250   1.44280   3.52330    42    34    41    20
 C     1.66040  -0.94630   3.64610    43    41    44    85
 C     0.26780  -0.67150   3.97530    44    45    35    43
 C    -0.63780  -1.68010   3.73530    45    88    44    37
 C    -3.14800   3.08470   0.91210    46    47    50    32
 C    -2.06060   3.88610   0.69700    47    30    46    61
 C    -4.53880   0.71610   0.75120    48    49    51    33
 C    -4.43590   1.48200  -0.32720    49    48    50    64
 C    -3.76420   2.66490  -0.26290    50    49    59    46
 C    -4.56880  -0.63810   0.63490    51    48    56    52
 C    -4.39480  -1.28030  -0.60790    52    53    63    51
 C    -3.76670  -2.49940  -0.53220    53    52    57    67
 C    -2.45600  -2.51780   2.74840    54    79    55    37
 C    -3.49210  -2.37620   1.85600    55    56    54    57
 C    -4.07400  -1.15230   1.80920    56    55    51    39
 C    -3.37320  -3.06690   0.66460    57    82    53    55
 C    -3.55760   1.80500  -2.25880    58    62    64    59
 C    -3.21700   2.89790  -1.51280    59    58    50    60
 C    -2.03310   3.59550  -1.70810    60    61    59     2
 C    -1.52650   4.14900  -0.56970    61     5    60    47
 C    -2.71910   1.38860  -3.19630    62    58    65     1
 C    -4.18240  -0.49420  -1.75650    63    64    52    66
 C    -4.28400   0.89600  -1.55940    64    58    49    63
 C    -2.58630   0.05200  -3.45660    65    71    62    66
 C    -3.26040  -0.95460  -2.76260    66    65    68    63
 C    -2.89220  -2.94450  -1.51770    67    73    68    53
 C    -2.55590  -2.19690  -2.64060    68    67    66    69
 C    -1.22700  -2.39620  -3.18860    69    70    68    76
 C    -0.65240  -1.29120  -3.87970    70    72    71    69
 C    -1.33360  -0.10540  -3.96390    71    65    70     7
 C     0.70580  -1.13860  -3.94830    72    78    70     8
 C    -2.00990  -3.81990  -0.92300    73    67    75    82
 C     0.19730  -4.38280  -0.43070    74    95    80    75
 C    -0.73710  -4.03780  -1.41620    75    73    74    76
 C    -0.29700  -3.34490  -2.57700    76    75    77    69
 C     1.12600  -3.16160  -2.70920    77    78    96    76
 C     1.56400  -2.04750  -3.42810    78    72    94    77
 C    -1.42090  -3.37820   2.52840    79    54    81    88
 C    -0.09230  -4.36490   0.92440    80    81    86    74
 C    -1.34570  -4.11120   1.36750    81    80    82    79
 C    -2.31730  -3.89590   0.42770    82    57    81    73
 C     3.90610  -1.08130   1.94590    83    40    91    84
 C     3.15100  -2.24190   2.08190    84    83    93    85
 C     2.01840  -2.20350   2.97790    85    87    84    43
 C     1.04210  -3.96090   1.60560    86    92    80    87
 C     0.98780  -3.14470   2.73850    87    88    86    85
 C    -0.29350  -2.87940   3.15650    88    87    45    79
 C     3.76920  -2.66020  -0.23760    89    90    97    93
 C     4.44790  -1.47530  -0.30210    90    91    89    27
 C     4.55040  -0.71950   0.78030    91    90    23    83
 C     2.05300  -3.88350   0.70410    92    86    93    95
 C     3.13940  -3.08770   0.92840    93    92    89    84
 C     2.74320  -1.38950  -3.19210    94    98    25    78
 C     1.52640  -4.13720  -0.56680    95    74    96    92
 C     2.04540  -3.58020  -1.70110    96    95    97    77
 C     3.22820  -2.88250  -1.49600    97    98    89    96
 C     3.57090  -1.80580  -2.24890    98    94    27    97
