    98
C98-Cs-209                                                                      
 C     3.35160  -3.01980  -0.14880     1     2     6    62
 C     2.74320  -3.36350   1.02410     2     1     3     9
 C     3.09900  -2.52990   2.09530     3     4    61     2
 C     2.21760  -2.24480   3.07900     4     5     3    29
 C     1.05820  -2.84900   3.10270     5     4    20    10
 C     2.71720  -3.20630  -1.34700     6     1    67     7
 C     1.41450  -3.74300  -1.48380     7     6    16     8
 C     0.72520  -4.13410  -0.28220     8     7     9    12
 C     1.44270  -3.93820   0.96370     9    10     2     8
 C     0.66540  -3.70790   2.08680    10    14     9     5
 C    -1.42980  -3.74280  -1.48170    11    15    18    12
 C    -0.73870  -4.13430  -0.28020    12    11    13     8
 C    -1.45490  -3.93850   0.96750    13    14    24    12
 C    -0.68430  -3.70660   2.09490    14    10    21    13
 C    -2.73090  -3.20110  -1.34010    15    23    92    11
 C     0.69670  -3.30990  -2.63220    16    18    17     7
 C     1.32720  -2.32430  -3.43720    17    66    96    16
 C    -0.71140  -3.31130  -2.63040    18    16    98    11
 C    -2.22290  -2.24350   3.08850    19    21    22    25
 C    -0.00500  -2.22990   3.65390    20    21     5    27
 C    -1.06720  -2.85170   3.11270    21    19    20    14
 C    -3.10030  -2.53130   2.10170    22    19    45    24
 C    -3.36690  -3.01500  -0.14440    23    24    15    43
 C    -2.75530  -3.36240   1.02170    24    23    22    13
 C    -2.33780  -0.94880   3.53060    25    40    19    26
 C    -1.23290  -0.18960   3.98330    26    25    27    35
 C     0.00580  -0.87720   4.08890    27    28    26    20
 C     1.24180  -0.18990   3.98090    28    29    27    31
 C     2.34090  -0.95140   3.52430    29    48     4    28
 C     0.00450   1.92210   3.61300    30    38    35    31
 C     1.28020   1.21510   3.73240    31    28    32    30
 C     2.46930   1.72700   3.06230    32    33    47    31
 C     2.33000   2.88200   2.30740    33    39    49    32
 C    -2.45980   1.72900   3.07240    34    36    42    35
 C    -1.26970   1.21650   3.73630    35    26    34    30
 C    -2.31710   2.88540   2.31280    36    37    87    34
 C    -1.14260   3.55130   2.19760    37    36    38    55
 C     0.01110   3.13030   2.83650    38    39    37    30
 C     1.16010   3.55450   2.19570    39    33    38    57
 C    -3.41840  -0.44770   2.87020    40    25    42    45
 C    -4.21920   1.18630   1.43570    41    86    46    42
 C    -3.52400   0.88720   2.61980    42    40    41    34
 C    -4.23130  -1.91930  -0.25310    43    44    93    23
 C    -4.50070  -1.10050   0.81220    44    45    46    43
 C    -3.90720  -1.42390   1.99550    45    44    22    40
 C    -4.65090   0.23180   0.53470    46    44    41    95
 C     3.52450   0.87680   2.60980    47    48    51    32
 C     3.42300  -0.46030   2.85830    48    29    47    61
 C     3.03380   3.13180   1.14590    49    50    52    33
 C     3.91830   2.26490   0.68290    50    49    51    69
 C     4.21240   1.16830   1.41770    51    50    59    47
 C     2.29410   3.85580   0.28320    52    49    57    53
 C     2.33280   3.61490  -1.09970    53    54    52    68
 C     1.12230   3.82860  -1.71930    54    70    53    58
 C    -1.14010   4.20380   0.96160    55    56    79    37
 C     0.00770   4.47600   0.30540    56    57    55    58
 C     1.15650   4.20740   0.95920    57    56    52    39
 C     0.00090   4.27920  -1.05410    58    56    81    54
 C     4.64790   0.21690   0.52060    59    60    51    63
 C     4.50130  -1.11390   0.80180    60    61    59    62
 C     3.91450  -1.43470   1.98750    61    60     3    48
 C     4.21740  -1.92560  -0.26690    62    60    65     1
 C     4.50330   0.73460  -0.76670    63    69    64    59
 C     4.19170  -0.05740  -1.84180    64    63    65    73
 C     4.09880  -1.42520  -1.54000    65    67    62    64
 C     2.53570  -1.77850  -3.18880    66    67    17    74
 C     3.24770  -2.25070  -2.18970    67    66    65     6
 C     3.18820   2.61610  -1.61620    68    69    53    72
 C     4.03120   2.01310  -0.66990    69    63    50    68
 C     0.69820   3.08540  -2.79400    70    54    71    84
 C     1.48280   2.07690  -3.34210    71    70    76    72
 C     2.79230   1.81990  -2.74810    72    68    73    71
 C     3.33940   0.49110  -2.84810    73    74    64    72
 C     2.56320  -0.43600  -3.52930    74    77    66    73
 C    -0.72820   1.08010  -3.99360    75    78    83    76
 C     0.72300   1.07290  -3.99950    76    77    71    75
 C     1.34480  -0.16700  -4.07710    77    74    96    76
 C    -1.35670  -0.16010  -4.06010    78    88    97    75
 C    -2.28210   3.85410   0.29080    79    87    55    80
 C    -2.32460   3.61530  -1.09350    80    81    79    90
 C    -1.11730   3.83170  -1.71950    81    84    58    80
 C    -2.79140   1.82580  -2.73730    82    90    89    83
 C    -1.48480   2.08350  -3.33650    83    84    75    82
 C    -0.70190   3.09010  -2.79640    84    81    83    70
 C    -4.03140   2.02080  -0.64870    85    95    86    90
 C    -3.92460   2.28320   0.70180    86    87    41    85
 C    -3.03290   3.14010   1.15820    87    86    79    36
 C    -2.57160  -0.43780  -3.50580    88    78    91    89
 C    -3.34570   0.49800  -2.83170    89    88    94    82
 C    -3.18850   2.61760  -1.60020    90    85    80    82
 C    -2.53830  -1.78210  -3.17130    91    92    98    88
 C    -3.26200  -2.23770  -2.17080    92    91    93    15
 C    -4.11710  -1.41000  -1.52730    93    92    43    94
 C    -4.20160  -0.04090  -1.82790    94    95    93    89
 C    -4.51000   0.74680  -0.75340    95    85    94    46
 C     0.64380  -1.34100  -4.08530    96    97    17    77
 C    -0.65920  -1.34140  -4.07640    97    96    98    78
 C    -1.33310  -2.32420  -3.43440    98    91    97    18
