    98
C98-Cs-18                                                                       
 C     2.80120   3.46500  -0.70250     1     6     2    57
 C     3.52070   2.57260  -1.43290     2     1     3    10
 C     4.46790   1.87610  -0.69390     3     4     2    43
 C     4.91370   0.64890  -1.07900     4     3     5    14
 C     4.30450   0.06080  -2.14580     5    15     4    11
 C     1.60610   3.92510  -1.12240     6     1    61     8
 C    -0.40290   3.56090  -2.21130     7     8    20    62
 C     0.95220   3.40080  -2.23810     8     7     6     9
 C     1.52000   2.30060  -2.92010     9     8    10    22
 C     2.85900   1.95940  -2.55020    10    11     9     2
 C     3.28160   0.67900  -2.82530    11     5    10    24
 C     4.98180  -1.43130   0.00350    12    13    32    14
 C     4.40990  -2.02160  -1.08350    13    15    12    17
 C     5.24770  -0.09130   0.01970    14    31    12     4
 C     4.06010  -1.27070  -2.15460    15     5    13    16
 C     2.90410  -1.50350  -2.83640    16    15    19    24
 C     3.54460  -3.00120  -0.68150    17    13    18    33
 C     2.42220  -3.36360  -1.41740    18    17    38    19
 C     2.06690  -2.55990  -2.57400    19    16    27    18
 C    -1.26310   2.67320  -2.81480    20     7    79    21
 C    -0.82050   1.48620  -3.41240    21    20    22    94
 C     0.60080   1.29160  -3.48050    22    23    21     9
 C     1.07100  -0.05570  -3.59740    23    24    22    26
 C     2.40850  -0.28910  -3.29220    24    11    16    23
 C    -1.25590  -0.94960  -3.47480    25    97    26    94
 C     0.17560  -1.17620  -3.53380    26    23    25    27
 C     0.72810  -2.42330  -3.00310    27    28    19    26
 C    -0.14810  -3.30250  -2.41740    28    98    27    37
 C     4.31560   0.08990   2.15900    29    31    30    44
 C     4.06220  -1.24440   2.15650    30    32    29    34
 C     4.93280   0.67830   1.10200    31    43    29    14
 C     4.39980  -2.01550   1.09250    32    30    33    12
 C     3.54400  -3.00460   0.71340    33    32    36    17
 C     2.89640  -1.47330   2.83400    34    30    35    48
 C     2.06300  -2.53690   2.57580    35    34    50    36
 C     2.41790  -3.36220   1.43510    36    33    39    35
 C     0.18190  -4.07420  -1.31290    37    89    38    28
 C     1.41570  -4.01280  -0.70640    38    37    18    39
 C     1.40930  -4.01130   0.73700    39    40    36    38
 C     0.17710  -4.06000   1.34240    40    90    39    49
 C    -0.40960   3.57230   2.17330    41    42    56    59
 C     0.94670   3.41960   2.20040    42    41    58    47
 C     4.48650   1.89790   0.71030    43    31    46     3
 C     3.27900   0.70460   2.82350    44    29    45    48
 C     2.85960   1.98910   2.53580    45    44    47    46
 C     3.53160   2.60400   1.42290    46    57    43    45
 C     1.51440   2.32360   2.89580    47    42    45    53
 C     2.39940  -0.25840   3.28550    48    44    34    52
 C    -0.15530  -3.27600   2.43610    49    70    50    40
 C     0.72370  -2.38990   3.00950    50    49    35    51
 C     0.16660  -1.14250   3.52700    51    52    54    50
 C     1.06010  -0.02220   3.58520    52    48    53    51
 C     0.58920   1.32260   3.45860    53    52    55    47
 C    -1.26310  -0.92180   3.45970    54    71    51    72
 C    -0.83210   1.51260   3.38240    55    56    53    72
 C    -1.27560   2.69150   2.77590    56    41    68    55
 C     2.80150   3.48190   0.69370    57    58    46     1
 C     1.60260   3.94130   1.08460    58    57    61    42
 C    -1.08920   4.17780   1.13050    59    63    60    41
 C    -0.42790   4.50280  -0.02430    60    61    59    62
 C     0.90200   4.37260  -0.02120    61    60    58     6
 C    -1.09120   4.17010  -1.17680    62    66    60     7
 C    -2.36790   3.73050   1.14080    63    59    65    68
 C    -4.06460   2.65320  -0.00910    64    65    69    77
 C    -3.09010   3.58410  -0.02510    65    64    66    63
 C    -2.36700   3.72780  -1.18640    66    62    65    79
 C    -3.46330   1.87620   2.20950    67    68    69    75
 C    -2.51180   2.84370   2.19280    68    67    56    63
 C    -4.34350   1.87500   1.10910    69    83    64    67
 C    -1.50670  -3.09600   2.41580    70    49    71    85
 C    -2.09680  -1.96620   2.94310    71    70    73    54
 C    -1.78650   0.43070   3.40440    72    55    54    75
 C    -3.34780  -1.71320   2.41660    73    74    71    87
 C    -3.85870  -0.44870   2.39090    74    73    82    75
 C    -3.12140   0.64820   2.85010    75    74    67    72
 C    -4.91890   0.74840  -0.68570    76    80    77    83
 C    -4.31750   1.86930  -1.13360    77    76    64    78
 C    -3.44670   1.85810  -2.24280    78    79    77    93
 C    -2.50190   2.83120  -2.23010    79    78    20    66
 C    -4.73270  -0.40120  -1.35840    80    76    84    95
 C    -4.73200  -1.58290   0.68420    81    87    82    84
 C    -4.77450  -0.39690   1.35170    82    83    81    74
 C    -4.94840   0.75160   0.68810    83    82    69    76
 C    -4.71170  -1.58770  -0.69030    84    91    80    81
 C    -2.04500  -3.79190   1.33950    85    90    86    70
 C    -3.20460  -3.42250   0.70970    86    85    87    92
 C    -3.91030  -2.43520   1.35170    87    81    86    73
 C    -2.03420  -3.79660  -1.33110    88    89    92    98
 C    -0.97730  -4.30950  -0.65800    89    90    37    88
 C    -0.97990  -4.30340   0.68160    90    89    85    40
 C    -3.89760  -2.43730  -1.36180    91    84    92    96
 C    -3.20180  -3.42290  -0.71170    92    91    88    86
 C    -3.11150   0.63000  -2.87570    93    95    78    94
 C    -1.77770   0.40640  -3.42880    94    21    25    93
 C    -3.83810  -0.46720  -2.41290    95    96    80    93
 C    -3.33850  -1.73350  -2.44040    96    95    97    91
 C    -2.08710  -1.99820  -2.95900    97    98    96    25
 C    -1.49870  -3.11980  -2.42080    98    28    97    88
