    98
C98-C1-26                                                                       
 C    -3.40510   3.13740  -0.17420     1     6     2    60
 C    -3.81960   2.34640  -1.21990     2     1     3     9
 C    -4.60510   1.25250  -0.82940     3     4    59     2
 C    -4.59750   0.09000  -1.54110     4     5     3    26
 C    -3.78020  -0.01190  -2.60710     5     4    18    10
 C    -2.25900   3.87000  -0.25380     6     1    65     7
 C    -1.39670   3.87780  -1.35410     7     6    14     8
 C    -1.71500   2.96780  -2.42300     8     9     7    12
 C    -2.93690   2.23960  -2.34070     9    10     8     2
 C    -2.95620   1.01310  -2.99060    10     5    20     9
 C     0.66170   2.85440  -2.86030    11    12    38    13
 C    -0.59670   2.38700  -3.14900    12    11    19     8
 C     0.93250   3.77070  -1.86140    13    14    98    11
 C    -0.06360   4.22680  -1.06110    14    13    15     7
 C     0.35560   4.37080   0.26730    15    64    96    14
 C    -2.31700  -3.15540  -2.12180    16    27    17    24
 C    -3.41860  -2.32650  -2.14240    17    16    18    25
 C    -3.19250  -1.19990  -2.90940    18     5    17    21
 C    -0.61800   1.05340  -3.68330    19    20    12    22
 C    -1.84450   0.44280  -3.58460    20    21    19    10
 C    -1.98390  -0.92020  -3.52890    21    20    23    18
 C     0.57300   0.20580  -3.77610    22    39    40    19
 C    -0.87880  -1.74390  -3.49530    23    21    24    40
 C    -1.11840  -2.89640  -2.77230    24    45    23    16
 C    -4.22820  -2.22180  -0.98450    25    26    29    17
 C    -4.80270  -0.98740  -0.71090    26     4    49    25
 C    -1.99230  -3.88510  -1.02510    27    28    30    16
 C    -2.70690  -3.72820   0.09440    28    27    29    31
 C    -3.80050  -2.92360   0.13830    29    28    47    25
 C    -0.65770  -4.11050  -0.98850    30    27    33    45
 C    -2.01700  -3.68160   1.27770    31    51    28    32
 C    -0.66090  -3.90840   1.38950    32    31    53    33
 C     0.06530  -4.22900   0.18350    33    30    36    32
 C     3.28820  -2.99980  -1.06010    34    35    91    46
 C     2.04420  -3.58610  -1.15470    35    34    44    36
 C     1.43130  -4.04420   0.07760    36    33    37    35
 C     2.07690  -3.67410   1.24780    37    92    36    52
 C     1.80620   2.11880  -3.07120    38    93    11    39
 C     1.83320   0.77890  -3.48690    39    38    22    41
 C     0.43910  -1.23520  -3.61450    40    23    22    43
 C     2.95580   0.00590  -3.07540    41    95    42    39
 C     2.80020  -1.38840  -2.83490    42    46    43    41
 C     1.54160  -2.00840  -3.05500    43    42    40    44
 C     1.21440  -3.16910  -2.23390    44    45    35    43
 C    -0.09990  -3.53230  -2.12040    45    24    44    30
 C     3.67750  -1.96120  -1.88890    46    89    34    42
 C    -3.83490  -2.38540   1.40830    47    48    29    51
 C    -4.39360  -1.15970   1.65190    48    47    50    49
 C    -4.92100  -0.46770   0.56720    49    59    26    48
 C    -3.76480  -0.40210   2.61600    50    57    48    56
 C    -2.70050  -2.82320   2.09020    51    31    55    47
 C     1.36350  -3.18010   2.33540    52    53    77    37
 C     0.01140  -3.22230   2.43960    53    52    32    54
 C    -0.63140  -2.19180   3.21600    54    55    53    76
 C    -2.02260  -2.04430   3.02170    55    56    51    54
 C    -2.60530  -0.82680   3.26060    56    55    67    50
 C    -3.72940   0.96080   2.56430    57    50    58    61
 C    -4.28410   1.66080   1.50780    58    60    59    57
 C    -4.83960   0.91150   0.49900    59    58    49     3
 C    -3.61470   2.79120   1.16320    60    58    63     1
 C    -2.56170   1.36520   3.19820    61    62    67    57
 C    -1.92060   2.53090   2.90780    62    61    63    72
 C    -2.53020   3.25170   1.86720    63    65    60    62
 C    -0.50030   4.16340   1.27600    64    65    15    75
 C    -1.78360   3.99340   1.03220    65    64    63     6
 C    -0.46090   0.23710   3.79430    66    67    76    71
 C    -1.84900   0.26650   3.61580    67    61    56    66
 C     3.58590   0.05250   2.67760    68    87    80    69
 C     2.33540   0.16470   3.32430    69    68    70    78
 C     1.68250   1.42970   3.27060    70    69    71    73
 C     0.26050   1.47460   3.56030    71    72    66    70
 C    -0.51950   2.59950   3.10290    72    75    62    71
 C     2.31020   2.46580   2.44670    73    74    81    70
 C     1.46000   3.43860   1.96150    74    75    73    96
 C     0.14570   3.51190   2.29810    75    74    64    72
 C     0.17360  -1.04250   3.66670    76    78    66    54
 C     2.13520  -2.19620   2.91290    77    85    52    78
 C     1.57510  -1.04900   3.48650    78    77    76    69
 C     4.91980   0.41470   0.92660    79    82    86    80
 C     4.13910   1.04840   1.88260    80    81    79    68
 C     3.49290   2.25140   1.67560    81    80    73    84
 C     4.93200   0.91710  -0.32940    82    83    79    88
 C     4.32060   2.08680  -0.58890    83    82    94    84
 C     3.64520   2.86110   0.37030    84    97    83    81
 C     3.34050  -2.22900   2.28770    85    87    77    92
 C     4.88770  -0.92430   1.11860    86    79    87    90
 C     4.10030  -1.13160   2.20290    87    85    86    68
 C     4.74450   0.05500  -1.39770    88    89    95    82
 C     4.64710  -1.26300  -1.19300    89    88    90    46
 C     4.79680  -1.79240   0.05050    90    91    89    86
 C     3.98100  -2.86370   0.12490    91    92    90    34
 C     3.30420  -3.12450   1.25810    92    37    91    85
 C     2.76260   2.65200  -2.24570    93    94    98    38
 C     3.80540   1.94360  -1.86690    94    93    95    83
 C     3.95560   0.66800  -2.31510    95    88    94    41
 C     1.61610   4.03220   0.71190    96    97    15    74
 C     2.63380   3.68980  -0.11250    97    96    84    98
 C     2.22490   3.58860  -1.44120    98    93    13    97
