    98
C98-C1-126                                                                      
 C    -2.69260  -3.74270  -0.42580     1     2     6    61
 C    -3.18660  -2.98480  -1.38880     2     1     3    20
 C    -4.10100  -2.02130  -1.10030     3     2     4    60
 C    -3.94540  -1.10480  -2.09400     4     5     3    10
 C    -4.33660   0.13550  -1.91810     5     4     9    57
 C    -1.44510  -4.25120  -0.55150     6     1    66    26
 C    -2.91920   3.17110  -1.71860     7     8    32    18
 C    -3.86070   2.22470  -1.76870     8     7     9    31
 C    -3.62730   1.13050  -2.53750     9     8     5    13
 C    -2.83550  -1.41260  -2.86210    10    20     4    12
 C    -0.65250  -0.79180  -3.65540    11    12    15    24
 C    -2.01570  -0.43740  -3.44240    12    10    13    11
 C    -2.42830   0.91410  -3.26730    13     9    12    17
 C     1.61820  -0.02330  -3.58860    14    25    15    41
 C     0.28470   0.30600  -3.73540    15    14    11    16
 C    -0.07730   1.67970  -3.45030    16    17    15    43
 C    -1.44870   1.94680  -3.22570    17    18    16    13
 C    -1.75860   3.05940  -2.42900    18     7    45    17
 C    -1.06060  -3.04720  -2.60180    19    20    26    24
 C    -2.37350  -2.62430  -2.44740    20    10     2    19
 C     2.97790  -3.08250  -1.55950    21    90    98    22
 C     1.71360  -3.35000  -2.13690    22    28    21    23
 C     1.22220  -2.36380  -3.06360    23    25    24    22
 C    -0.16870  -2.14240  -3.27090    24    23    19    11
 C     2.07650  -1.29080  -3.30510    25    91    14    23
 C    -0.57430  -3.98560  -1.63470    26    28     6    19
 C     1.18600  -4.34380  -0.03280    27    94    65    28
 C     0.79750  -4.09210  -1.37430    28    26    22    27
 C    -4.24170   2.46520   0.51420    29    31    30    49
 C    -3.28850   3.43510   0.55430    30    32    29    34
 C    -4.58500   1.87270  -0.65450    31    29    57     8
 C    -2.65200   3.82950  -0.56550    32    33    30     7
 C    -1.36100   4.19990  -0.55340    33    32    36    45
 C    -2.53690   3.29600   1.68730    34    30    50    35
 C    -1.21590   3.69730   1.78270    35    34    52    36
 C    -0.59720   4.26320   0.60010    36    39    33    35
 C     2.67730   3.54650  -0.89000    37    83    46    38
 C     1.37260   4.00610  -0.87350    38    37    44    39
 C     0.77460   4.25240   0.42480    39    36    40    38
 C     1.51780   3.83380   1.51640    40    84    39    51
 C     2.59290   0.87040  -3.17730    41    42    14    86
 C     2.27340   2.14770  -2.79040    42    41    46    43
 C     0.93940   2.58360  -2.88960    43    42    44    16
 C     0.53130   3.60510  -1.95220    44    45    38    43
 C    -0.79930   3.78670  -1.76250    45    44    18    33
 C     3.14530   2.66160  -1.83690    46    37    42    88
 C    -3.65320  -0.40110   2.50640    47    58    48    55
 C    -4.41590   0.33300   1.61860    48    47    49    56
 C    -4.09820   1.68770   1.62820    49    29    48    50
 C    -3.03320   2.21260   2.36730    50    34    54    49
 C     0.93350   3.14030   2.57320    51    52    67    40
 C    -0.40840   2.98490   2.71930    52    51    35    53
 C    -0.85670   1.78410   3.38500    53    54    52    69
 C    -2.21050   1.44100   3.16580    54    55    50    53
 C    -2.58380   0.12710   3.24130    55    54    71    47
 C    -4.84490  -0.30090   0.41030    56    57    60    48
 C    -4.86540   0.54850  -0.71060    57    31     5    56
 C    -3.39460  -1.72390   2.33350    58    47    59    62
 C    -3.83070  -2.41340   1.21360    59    61    58    60
 C    -4.49620  -1.66670   0.21420    60    59     3    56
 C    -2.99150  -3.45620   0.88430    61    64     1    59
 C    -2.19740  -2.01290   2.99190    62    63    71    58
 C    -1.39090  -3.05880   2.66540    63    62    64    74
 C    -1.86580  -3.80630   1.58740    64    66    61    63
 C     0.28930  -4.36950   0.98190    65    66    27    75
 C    -0.99240  -4.38440   0.72940    66    65    64     6
 C     1.85510   2.22140   3.02670    67    76    51    68
 C     1.50070   0.96300   3.53020    68    67    69    79
 C     0.11620   0.73040   3.72380    69    68    70    53
 C    -0.30640  -0.64150   3.74480    70    71    69    73
 C    -1.67200  -0.86040   3.51800    71    62    55    70
 C     1.99510  -1.45120   3.18310    72    79    73    80
 C     0.59520  -1.73500   3.45060    73    74    70    72
 C     0.00060  -2.93800   2.90880    74    75    63    73
 C     0.80580  -3.70060   2.07380    75    81    65    74
 C     3.00750   2.46950   2.34950    76    77    84    67
 C     3.89860   1.50110   2.13430    77    76    78    85
 C     3.63030   0.23900   2.58000    78    77    95    79
 C     2.44310  -0.09990   3.27900    79    78    72    68
 C     2.77700  -2.33750   2.33140    80    81    96    72
 C     2.09170  -3.41170   1.78640    81    75    80    94
 C     4.34080   2.36890  -0.00060    82    83    88    85
 C     3.42690   3.34500   0.23430    83    84    82    37
 C     2.79690   3.43030   1.41690    84    83    40    76
 C     4.62420   1.45660   0.97740    85    92    77    82
 C     3.66110   0.16050  -2.64800    86    91    41    87
 C     4.48810   0.63530  -1.63800    87    88    86    93
 C     4.21040   1.93950  -1.28820    88    82    87    46
 C     4.49970  -1.60000  -0.77590    89    93    97    90
 C     3.77010  -2.02990  -1.86710    90    91    21    89
 C     3.32470  -1.14670  -2.75580    91    90    86    25
 C     4.87480   0.16260   0.68760    92    85    93    95
 C     4.88590  -0.28660  -0.62810    93    89    92    87
 C     2.33550  -3.89060   0.50870    94    98    27    81
 C     4.30910  -0.60580   1.72270    95    96    78    92
 C     3.88840  -1.88590   1.56260    96    95    97    80
 C     4.08760  -2.40000   0.27090    97    98    89    96
 C     3.25850  -3.33660  -0.23760    98    94    97    21
