    98
C98-C1-195                                                                      
 C    -3.37300  -0.69110  -2.77330     1     2     8    59
 C    -3.01010  -1.98420  -2.55700     2     1     3     7
 C    -3.55300  -2.54060  -1.38660     3     4    58     2
 C    -2.89260  -3.48100  -0.68370     4     5     3    26
 C    -1.77780  -3.98220  -1.18090     5     4    12     6
 C    -1.20480  -3.47760  -2.33150     6    23     5     7
 C    -1.72990  -2.39800  -3.02640     7     6     2    19
 C    -2.53030   0.18150  -3.40050     8     1    71     9
 C    -1.21930  -0.13680  -3.82870     9     8    19    18
 C     0.28740  -4.12090   1.65210    10    11    27    16
 C    -0.92740  -4.26660   1.04170    11    10    12    25
 C    -0.82840  -4.44830  -0.34700    12     5    13    11
 C     0.35180  -4.40060  -1.03730    13    15    12    23
 C     2.53600  -3.67960  -1.05050    14    15    38    24
 C     1.53820  -4.33890  -0.39120    15    13    14    16
 C     1.49420  -4.21400   0.98520    16    40    10    15
 C    -0.79130   2.20500  -3.43570    17    75    70    18
 C    -0.28820   0.95020  -3.86830    18    17    94     9
 C    -0.77990  -1.48070  -3.64340    19     9    21     7
 C     1.59750  -0.61930  -3.60750    20    97    94    21
 C     0.64870  -1.73200  -3.54200    21    22    19    20
 C     1.06310  -2.92790  -2.84990    22    23    24    21
 C     0.12080  -3.73680  -2.24640    23     6    22    13
 C     2.30510  -2.99030  -2.24110    24    98    22    14
 C    -2.04120  -3.58890   1.58420    25    26    11    29
 C    -3.06100  -3.29090   0.67010    26    43     4    25
 C     0.46900  -3.25030   2.70870    27    32    10    28
 C    -0.55590  -2.48590   3.24270    28    27    36    29
 C    -1.89250  -2.68680   2.70020    29    30    25    28
 C    -2.84690  -1.62790   2.82360    30    31    42    29
 C    -2.41150  -0.47670   3.46370    31    44    37    30
 C     1.78910  -2.85540   2.70450    32    27    40    34
 C     3.32590  -1.11020   2.58600    33    50    34    41
 C     2.19070  -1.62300   3.20120    34    32    33    35
 C     1.23670  -0.74890   3.76210    35    34    36    52
 C    -0.13540  -1.23420   3.81930    36    37    28    35
 C    -1.12360  -0.28510   3.91330    37    36    54    31
 C     3.53440  -3.03550  -0.36770    38    14    89    39
 C     3.50380  -2.92130   1.01610    39    40    41    38
 C     2.43570  -3.48530   1.65210    40    16    39    32
 C     3.96630  -1.73690   1.52410    41    92    39    33
 C    -3.89110  -1.42290   1.86760    42    43    46    30
 C    -3.94210  -2.26080   0.78590    43    26    42    58
 C    -2.91710   0.76660   3.18960    44    45    47    31
 C    -3.84030   0.95900   2.25080    45    44    46    61
 C    -4.33760  -0.11940   1.59810    46    45    56    42
 C    -1.98410   1.71280   3.40990    47    44    54    48
 C    -1.93450   2.88470   2.66450    48    49    47    60
 C    -0.68240   3.41030   2.61080    49    48    66    55
 C     3.55310   0.24280   2.48610    50    33    51    83
 C     2.69070   1.18570   3.02660    51    50    87    52
 C     1.50900   0.68830   3.70980    52    53    51    35
 C     0.40430   1.56790   3.78530    53    54    55    52
 C    -0.86230   1.06530   3.90460    54    53    37    47
 C     0.45140   2.80600   3.17510    55    88    53    49
 C    -4.69670   0.33070   0.34160    56    57    46    62
 C    -4.65000  -0.51670  -0.73380    57    58    59    56
 C    -4.30020  -1.81120  -0.48630    58    57     3    43
 C    -4.20080   0.02760  -1.90520    59    57    65     1
 C    -2.83650   3.06930   1.57980    60    61    48    63
 C    -3.80420   2.07250   1.44030    61    62    45    60
 C    -4.33720   1.67820   0.24480    62    61    64    56
 C    -2.38770   3.74750   0.38990    63    67    60    68
 C    -3.90140   2.24900  -0.93030    64    62    65    68
 C    -3.86610   1.35060  -2.00590    65    71    59    64
 C    -0.27840   4.15830   1.54520    66    49    80    67
 C    -1.06920   4.32500   0.39190    67    66    78    63
 C    -2.93400   3.29030  -0.86650    68    69    64    63
 C    -2.06990   3.35770  -1.96970    69    77    70    68
 C    -2.05300   2.40480  -2.96110    70    71    17    69
 C    -2.91110   1.42160  -2.96560    71    70    65     8
 C     2.99660   3.33230  -1.09770    72    76    73    81
 C     1.85670   3.75370  -1.70590    73    72    79    74
 C     1.30820   3.05120  -2.77730    74    75    73    93
 C    -0.03480   3.18390  -2.86590    75    74    17    77
 C     3.63430   2.27410  -1.57250    76    72    84    95
 C    -0.82040   3.87870  -1.93230    77    69    78    75
 C    -0.29340   4.42800  -0.79540    78    77    79    67
 C     1.08770   4.38160  -0.74350    79    82    73    78
 C     1.09250   4.09910   1.54810    80    82    66    88
 C     2.94910   3.57550   0.25040    81    82    72    86
 C     1.78220   4.24400   0.42340    82    80    81    79
 C     4.32480   0.45360   1.35110    83    85    92    50
 C     4.32880   1.47050  -0.73400    84    76    90    85
 C     4.26420   1.64040   0.66300    85    83    86    84
 C     3.49230   2.68530   1.19430    86    85    81    87
 C     2.71350   2.47190   2.38590    87    88    51    86
 C     1.55490   3.23420   2.51010    88    55    80    87
 C     3.98830  -2.01800  -1.16830    89    91    38    98
 C     4.38470   0.24330  -1.35060    90    91    84    96
 C     4.55160  -0.89570  -0.63130    91    90    89    92
 C     4.53210  -0.76620   0.74410    92    41    83    91
 C     1.91030   1.84910  -3.24450    93    95    74    94
 C     1.11680   0.74460  -3.75210    94    18    93    20
 C     3.11710   1.54600  -2.62710    95    96    76    93
 C     3.58870   0.28480  -2.50400    96    95    97    90
 C     2.88900  -0.80700  -2.98780    97    98    96    20
 C     3.19170  -1.97320  -2.31360    98    24    97    89
