    98
C98-C1-207                                                                      
 C    -3.74570  -2.00390   1.56770     1     2     5    59
 C    -4.38710  -1.04820   0.82450     2    55     1     9
 C    -1.53420  -3.46330   2.28420     3     4     6    60
 C    -2.13650  -3.74260   1.14840     4     3     5    18
 C    -3.24560  -3.06220   0.79300     5     4     7     1
 C    -0.20180  -3.65440   2.39810     6     3    66    24
 C    -3.27860  -3.09810  -0.57770     7     8     5    11
 C    -3.89940  -2.11260  -1.28260     8    10     7     9
 C    -4.47570  -1.09800  -0.56530     9     8    29     2
 C    -3.33170  -1.77310  -2.47230    10     8    14    27
 C    -2.11380  -3.72270  -1.02320    11    18    13     7
 C    -0.08690  -3.51870  -2.32100    12    13    16    22
 C    -1.50530  -3.39080  -2.21340    13    11    14    12
 C    -2.19010  -2.40540  -2.93340    14    39    10    13
 C     1.86720  -2.36020  -3.12730    15    23    16    84
 C     0.52600  -2.65040  -3.29120    16    15    38    12
 C     0.00640  -4.26670   0.06210    17    18    24    22
 C    -1.38820  -4.13380   0.05630    18    11     4    17
 C     3.78220  -2.51450   0.30970    19    90    98    20
 C     2.72060  -3.45460   0.22810    20    26    19    21
 C     2.08220  -3.60940  -1.04970    21    23    22    20
 C     0.70140  -3.98290  -1.16360    22    21    17    12
 C     2.61840  -2.82610  -2.08280    23    15    91    21
 C     0.64110  -4.06960   1.33260    24    26     6    17
 C     2.32300  -2.82720   2.52460    25    65    94    26
 C     1.98160  -3.64690   1.41620    26    24    20    25
 C    -3.32360  -0.46890  -2.93760    27    32    28    10
 C    -3.87820   0.57700  -2.23570    28    27    29    36
 C    -4.49330   0.19330  -1.03530    29    30     9    28
 C    -4.50610   1.00050   0.05100    30    31    29    55
 C    -3.99980   2.22040  -0.03840    31    30    43    37
 C    -2.22770  -0.30470  -3.71680    32    27    34    39
 C    -0.25910   0.79860  -4.15620    33    34    48    40
 C    -1.58900   0.92290  -3.84110    34    33    32    35
 C    -2.04540   2.05560  -3.11580    35    34    36    50
 C    -3.24260   1.85530  -2.32510    36    37    28    35
 C    -3.39060   2.66170  -1.20040    37    52    31    36
 C    -0.21840  -1.63570  -3.96830    38    39    40    16
 C    -1.54820  -1.52750  -3.74570    39    38    14    32
 C     0.38850  -0.42310  -4.26570    40    85    33    38
 C    -2.09850   2.43820   2.92260    41    56    42    47
 C    -3.23760   2.08070   2.23540    42    41    43    54
 C    -3.42200   2.79330   1.03990    43    31    44    42
 C    -2.53180   3.71360   0.55540    44    46    43    52
 C    -0.33930   4.41960   0.58270    45    46    67    53
 C    -1.44830   4.07500   1.28580    46    44    45    47
 C    -1.24150   3.42620   2.48090    47    46    69    41
 C     0.68130   1.74450  -3.79480    48    49    33    88
 C     0.34860   2.86750  -3.06320    49    48    80    50
 C    -1.05400   3.05990  -2.72020    50    51    49    35
 C    -1.33330   3.83730  -1.56030    51    52    53    50
 C    -2.48420   3.60680  -0.83510    52    37    51    44
 C    -0.27190   4.30980  -0.80760    53    81    51    45
 C    -3.68210   0.73920   2.33530    54    55    42    58
 C    -4.37680   0.26230   1.21360    55     2    30    54
 C    -1.36560   1.55250   3.67410    56    41    57    70
 C    -1.74620   0.22500   3.81360    57    56    62    58
 C    -2.95150  -0.22020   3.12570    58    59    54    57
 C    -3.03500  -1.60180   2.73350    59    60     1    58
 C    -1.95620  -2.40310   3.07390    60    63    59     3
 C     0.71560  -0.16750   4.14480    61    64    72    62
 C    -0.65650  -0.64060   4.10610    62    63    57    61
 C    -0.84700  -1.96680   3.73400    63    60    66    62
 C     1.70690  -1.08990   3.81560    64    78    65    61
 C     1.41770  -2.37480   3.42790    65    66    25    64
 C     0.18330  -2.79120   3.37830    66    65     6    63
 C     0.91220   4.20980   1.10370    67    73    45    68
 C     1.16480   3.54630   2.31130    68    69    67    76
 C     0.01820   3.15270   2.96280    69    70    47    68
 C    -0.04130   2.00230   3.70720    70    69    72    56
 C     2.31390   1.56430   3.24800    71    77    76    72
 C     1.06140   1.18200   3.88400    72    70    61    71
 C     1.73280   4.08230   0.03440    73    74    67    81
 C     2.86180   3.40480   0.15290    74    73    82    75
 C     3.19190   2.78300   1.33940    75    95    74    76
 C     2.32750   2.75920   2.44400    76    75    68    71
 C     3.26020   0.53780   2.89850    77    78    96    71
 C     2.89790  -0.76670   3.22870    78    64    94    77
 C     2.70140   2.67520  -2.15130    79    82    87    80
 C     1.42720   3.36240  -2.25310    80    81    49    79
 C     1.02950   4.08780  -1.14130    81    53    73    80
 C     3.37710   2.74330  -0.91840    82    74    92    79
 C     3.48930  -0.85040  -2.74970    83    84    91    86
 C     2.43740  -1.16560  -3.53040    84    85    83    15
 C     1.68840  -0.19520  -4.03830    85    84    40    88
 C     3.82220   0.47150  -2.38450    86    93    83    87
 C     2.95530   1.50360  -2.89580    87    88    79    86
 C     1.91550   1.11490  -3.72830    88    85    48    87
 C     4.61090  -0.51510  -0.31790    89    90    97    93
 C     4.21240  -1.76330  -0.73590    90    91    19    89
 C     3.65200  -1.92250  -1.91680    91    90    83    23
 C     4.16630   1.75070  -0.40080    92    93    82    95
 C     4.41990   0.61010  -1.11370    93    92    89    86
 C     3.28400  -1.87050   2.48660    94    98    25    78
 C     4.03410   1.76900   0.99730    95    75    96    92
 C     4.12870   0.64220   1.76900    96    95    97    77
 C     4.47890  -0.50170   1.05490    97    98    89    96
 C     4.03000  -1.73290   1.41090    98    94    97    19
