    98
C98-C2-166                                                                      
 C    -2.61570   3.59770   0.03000     1     6     2    59
 C    -3.26370   2.96600   1.07010     2     1     3    10
 C    -4.24850   2.06270   0.65080     3     4    58     2
 C    -4.53010   0.94390   1.37780     4     5     3    28
 C    -3.82610   0.69480   2.49670     5     4    14    11
 C    -1.34480   4.05730   0.15520     6     1     8    76
 C     0.73030   4.00360   1.13130     7    21     8    77
 C    -0.62160   3.92920   1.32430     8     7     6     9
 C    -1.16380   3.17530   2.40740     9     8    10    23
 C    -2.50620   2.71660   2.25540    10    11     9     2
 C    -2.83770   1.54790   2.92630    11     5    25    10
 C    -2.96660  -2.67570   2.09660    12    29    13    20
 C    -3.89400  -1.65120   2.06170    13    12    14    27
 C    -3.50600  -0.57790   2.84750    14     5    15    13
 C    -2.31190  -0.51730   3.54740    15    25    19    14
 C     1.67020   0.40790   3.75860    16    40    26    17
 C     0.34690   0.09350   3.96810    17    16    24    18
 C    -0.02820  -1.29610   3.78590    18    19    17    42
 C    -1.39830  -1.55500   3.57570    19    20    15    18
 C    -1.78730  -2.64510   2.82420    20    44    19    12
 C     1.62470   3.44740   1.98370    21     7    95    22
 C     1.18010   2.63710   3.02040    22    26    21    23
 C    -0.20570   2.44080   3.23150    23    22    24     9
 C    -0.60090   1.16600   3.78780    24    25    17    23
 C    -1.90990   0.79990   3.61530    25    24    11    15
 C     2.09210   1.64810   3.33890    26    16    22    98
 C    -4.59790  -1.40550   0.85610    27    28    31    13
 C    -4.90530  -0.08410   0.54360    28     4    48    27
 C    -2.71540  -3.45030   1.00770    29    30    32    12
 C    -3.33370  -3.18520  -0.14730    30    29    31    33
 C    -4.26010  -2.19260  -0.24380    31    30    46    27
 C    -1.43400  -3.89850   1.04060    32    29    44    35
 C    -2.61300  -3.30220  -1.30790    33    50    30    34
 C    -1.30700  -3.76600  -1.36060    34    33    52    35
 C    -0.69040  -4.14590  -0.10680    35    32    38    34
 C     2.61130  -3.31440   1.27310    36    45    87    37
 C     1.30520  -3.78100   1.32480    37    36    43    38
 C     0.69250  -4.14570   0.06350    38    39    35    37
 C     1.42970  -3.88490  -1.08180    39    88    51    38
 C     2.63060  -0.50210   3.38850    40    16    41    91
 C     2.29330  -1.80950   3.09900    41    40    45    42
 C     0.95710  -2.23770   3.25960    42    41    43    18
 C     0.49470  -3.30040   2.39120    43    44    37    42
 C    -0.85420  -3.44370   2.21260    44    43    20    32
 C     3.11800  -2.38210   2.13720    45    36    41    94
 C    -4.15430  -1.69370  -1.52560    46    47    31    50
 C    -4.45930  -0.38270  -1.79730    47    46    49    48
 C    -4.86070   0.42240  -0.74360    48    58    28    47
 C    -3.66280   0.19760  -2.76380    49    56    47    55
 C    -3.11480  -2.36530  -2.17230    50    33    54    46
 C     0.85140  -3.40870  -2.24670    51    52    66    39
 C    -0.50180  -3.26830  -2.42520    52    51    34    53
 C    -0.95830  -2.19890  -3.29010    53    54    52    68
 C    -2.29710  -1.77460  -3.12450    54    55    50    53
 C    -2.62650  -0.46430  -3.40150    55    70    54    49
 C    -3.32330   1.52900  -2.70870    56    49    57    60
 C    -3.72800   2.33500  -1.66890    57    59    58    56
 C    -4.48270   1.75150  -0.68140    58    57    48     3
 C    -2.82180   3.28120  -1.30170    59    57    65     1
 C    -2.08970   1.67870  -3.32790    60    70    64    56
 C     1.90740   0.83610  -3.59740    61    62    72    71
 C     0.59540   1.20460  -3.77700    62    61    69    63
 C     0.19800   2.47620  -3.21200    63    64    62    74
 C    -1.18770   2.67660  -2.99760    64    60    65    63
 C    -1.62510   3.48130  -1.95650    65    76    59    64
 C     1.78570  -2.61020  -2.85920    66    51    67    83
 C     1.39550  -1.51160  -3.59750    67    66    71    68
 C     0.02790  -1.25260  -3.80640    68    67    69    53
 C    -0.35130   0.13520  -3.97710    69    70    62    68
 C    -1.67100   0.44760  -3.77130    70    55    69    60
 C     2.31490  -0.48280  -3.54910    71    67    61    85
 C     2.83660   1.58330  -2.90910    72    78    61    73
 C     2.49940   2.74350  -2.22630    73    72    74    81
 C     1.15420   3.20190  -2.37700    74    75    73    63
 C     0.61090   3.95250  -1.28990    75    76    77    74
 C    -0.73520   4.03450  -1.10000    76    65    75     6
 C     1.34440   4.05700  -0.12540    77    82    75     7
 C     3.82680   0.72700  -2.49020    78    79    85    72
 C     4.52960   0.95410  -1.36450    79    78    80    89
 C     4.24210   2.06740  -0.63390    80    79    96    81
 C     3.25800   2.97870  -1.03780    81    82    80    73
 C     2.61230   3.60030   0.00350    82    77    81    95
 C     2.96230  -2.65540  -2.12630    83    88    84    66
 C     3.89060  -1.63150  -2.07880    84    83    85    90
 C     3.51020  -0.54740  -2.85250    85    78    71    84
 C     4.26120  -2.20100   0.21250    86    87    94    90
 C     3.32870  -3.19350   0.11100    87    88    86    36
 C     2.71130  -3.44100  -1.04600    88    87    39    83
 C     4.91030  -0.07880  -0.54500    89    79    92    90
 C     4.59960  -1.39210  -0.87520    90    89    86    84
 C     3.67300   0.17360   2.76790    91    98    93    40
 C     4.86440   0.40680   0.75030    92    89    93    96
 C     4.46310  -0.40790   1.79870    93    94    91    92
 C     4.16440  -1.71020   1.50350    94    93    86    45
 C     2.82590   3.26410   1.32790    95    97    21    82
 C     4.47780   1.73980   0.69560    96    97    92    80
 C     3.72780   2.31060   1.69570    97    95    98    96
 C     3.32660   1.50260   2.72970    98    97    91    26
