    98
C98-C1-154                                                                      
 C     3.78760  -2.50050   1.09210     1     9    52     2
 C     3.79390  -1.47470   2.03550     2     6     1     3
 C     4.31140  -0.20900   1.71890     3     2    76     4
 C     3.70880   0.96940   2.28530     4     5    11     3
 C     3.79610   2.14550   1.53710     5    14    50     4
 C     2.71510  -1.55450   2.89230     6    10     2     7
 C     1.76480  -2.56510   2.86420     7     8    23     6
 C     1.78130  -3.58780   1.94330     8     7     9    31
 C     2.83020  -3.48100   1.03890     9    63     1     8
 C     2.11790  -0.42810   3.41290    10     6    16    11
 C     2.55450   0.86110   3.13780    11    10    12     4
 C     1.54290   1.87820   3.23760    12    13    11    18
 C     1.74520   3.03300   2.41930    13    14    15    12
 C     2.82980   3.11780   1.57990    14     5    13    35
 C     0.65280   3.74850   1.98740    15    21    13    33
 C     0.81100  -0.75660   3.72850    16    17    23    10
 C    -0.20110   0.16680   3.84670    17    16    27    18
 C     0.17490   1.54370   3.61790    18    20    17    12
 C    -2.16460   1.92600   3.10940    19    28    20    44
 C    -0.87630   2.41100   3.22930    20    19    21    18
 C    -0.60360   3.48540   2.40310    21    15    46    20
 C    -0.67140  -2.59350   3.08260    22    23    29    26
 C     0.58460  -2.07720   3.38350    23     7    16    22
 C    -2.92260  -3.01360   1.56700    24    32    91    25
 C    -2.99230  -1.96030   2.48170    25    24    94    26
 C    -1.79230  -1.70300   3.24290    26    22    25    27
 C    -1.53370  -0.33590   3.65230    27    28    17    26
 C    -2.49150   0.60870   3.31320    28    19    95    27
 C    -0.66140  -3.68010   2.15090    29    32    31    22
 C     0.47540  -4.50410   0.19180    30    96    62    31
 C     0.55490  -4.13200   1.55100    31     8    30    29
 C    -1.82110  -3.80240   1.39880    32    24    98    29
 C     0.56210   4.31430   0.71470    33    38    34    15
 C     1.56270   4.20150  -0.19170    34    33    35    42
 C     2.75300   3.71330   0.31120    35    36    34    14
 C     3.67240   3.09680  -0.44900    36    35    50    37
 C     3.33560   2.80810  -1.73270    37    51    36    43
 C    -0.74520   4.34960   0.36720    38    33    46    40
 C    -2.45870   3.64480  -1.01750    39    70    40    47
 C    -1.17080   4.12760  -0.94130    40    39    38    41
 C    -0.18510   3.77550  -1.90850    41    42    40    72
 C     1.18240   3.90030  -1.54100    42    43    41    34
 C     2.11270   3.14470  -2.23200    43    37    42    74
 C    -3.09380   2.46160   2.22370    44    87    45    19
 C    -2.74990   3.45560   1.33780    45    46    47    44
 C    -1.49660   3.94770   1.45590    46    45    21    38
 C    -3.27330   3.36480   0.07310    47    90    45    39
 C     4.82040   1.06340  -0.27630    48    50    76    49
 C     4.49160   0.78340  -1.58830    49    51    54    48
 C     4.36510   2.19040   0.28390    50    48    36     5
 C     3.71820   1.63260  -2.27900    51    49    37    55
 C     4.16790  -2.25270  -0.20540    52    53    60     1
 C     4.66520  -1.08610  -0.53260    53    52    76    54
 C     4.32510  -0.54400  -1.75630    54    49    53    57
 C     2.72850   1.16290  -3.09850    55    51    74    56
 C     2.47340  -0.20510  -3.30170    56    55    67    57
 C     3.34110  -1.11380  -2.60970    57    59    54    56
 C     1.55060  -2.79390  -2.66770    58    61    59    68
 C     2.85620  -2.38730  -2.26670    59    57    60    58
 C     3.35820  -2.94500  -1.05890    60    63    52    59
 C     0.93740  -3.78210  -1.87820    61    82    62    58
 C     1.47860  -4.23310  -0.68850    62    63    30    61
 C     2.63730  -3.78220  -0.28420    63    62    60     9
 C    -0.76270  -2.16800  -3.28970    64    69    81    68
 C    -1.16380   0.16920  -3.74030    65    66    69    75
 C     0.16650   0.51390  -3.79000    66    65    73    67
 C     1.13930  -0.56270  -3.66240    67    56    66    68
 C     0.66440  -1.91030  -3.37660    68    58    64    67
 C    -1.62260  -1.11140  -3.52410    69    65    77    64
 C    -2.83910   2.79400  -2.01430    70    39    83    71
 C    -1.89930   2.32340  -2.92590    71    75    70    72
 C    -0.56380   2.77960  -2.91190    72    71    73    41
 C     0.44710   1.88400  -3.43500    73    74    66    72
 C     1.74470   2.13970  -3.11170    74    73    43    55
 C    -2.16650   1.04140  -3.37390    75    65    86    71
 C     4.83750  -0.09690   0.40650    76    48    53     3
 C    -2.91420  -1.02750  -3.04180    77    79    86    69
 C    -4.33540  -1.46510  -1.25010    78    92    84    79
 C    -3.45090  -1.98170  -2.20860    79    77    80    78
 C    -2.64600  -3.08230  -1.90500    80    79    97    81
 C    -1.33120  -3.20550  -2.47770    81    82    64    80
 C    -0.41130  -3.95640  -1.77680    82    61    81    96
 C    -3.92560   2.04900  -1.57810    83    85    90    70
 C    -4.67590  -0.13390  -1.15830    84    78    85    88
 C    -4.16050   0.78510  -2.04620    85    83    86    84
 C    -3.25850   0.30400  -2.96140    86    85    77    75
 C    -3.99670   1.48260   1.89770    87    44    89    95
 C    -4.86650   0.17920   0.18450    88    89    93    84
 C    -4.59930   1.44080   0.64960    89    88    90    87
 C    -4.17360   2.38990  -0.26140    90    47    83    89
 C    -3.57060  -2.97440   0.33810    91    92    97    24
 C    -4.35110  -1.95020   0.02850    92    91    93    78
 C    -4.58770  -0.95700   0.92030    93    92    88    94
 C    -3.90520  -0.92530   2.14720    94    95    93    25
 C    -3.63500   0.33650   2.59460    95    94    28    87
 C    -0.66420  -4.45360  -0.51230    96    98    30    82
 C    -2.80420  -3.59820  -0.60060    97    98    91    80
 C    -1.81090  -4.19170   0.07300    98    96    97    32
