    98
C98-C1-38                                                                       
 C    -4.26550  -1.97630  -0.54850     1    26     3    46
 C    -3.66440  -2.37770   1.64680     2     4    48     3
 C    -4.43730  -1.61370   0.77880     3     1     2     8
 C    -3.08470  -1.84120   2.77100     4     5     6     2
 C    -3.25440  -0.57450   3.06200     5     4     7    20
 C    -1.89480  -2.42290   3.05420     6     4    49    18
 C    -4.07910   0.19400   2.28890     7    10     5     8
 C    -4.68960  -0.25470   1.08920     8     3     7     9
 C    -4.80620   0.70720   0.03820     9    12    25     8
 C    -3.60310   1.45180   2.47010    10    11     7    21
 C    -3.77280   2.36050   1.51820    11    10    14    12
 C    -4.35900   2.01250   0.32750    12    27    11     9
 C    -0.62640   3.92420   1.53020    13    15    98    32
 C    -2.82460   3.31360   1.35250    14    11    15    30
 C    -1.68440   3.35820   2.14230    15    13    14    24
 C     0.50750  -3.38050   2.40180    16    77    50    17
 C     0.50400  -2.27230   3.28330    17    18    16    91
 C    -0.76820  -1.75020   3.59120    18    17     6    19
 C    -0.91630  -0.36180   3.85070    19    20    18    22
 C    -2.20290   0.15280   3.59270    20    21     5    19
 C    -2.43860   1.43860   3.23590    21    20    24    10
 C     0.21260   0.52740   3.79610    22    19    92    23
 C    -0.05890   1.92770   3.43440    23    97    24    22
 C    -1.41030   2.34940   3.11360    24    21    15    23
 C    -4.62190   0.29920  -1.31130    25    26    29     9
 C    -4.34440  -1.04220  -1.55420    26     1    35    25
 C    -3.75110   2.83700  -0.58400    27    28    30    12
 C    -3.54510   2.40520  -1.82880    28    27    29    38
 C    -3.98410   1.17560  -2.20430    29    28    33    25
 C    -2.81100   3.62530  -0.00070    30    27    31    14
 C    -1.64990   4.00670  -0.65480    31    32    30    37
 C    -0.60220   4.24000   0.16230    32    69    31    13
 C    -3.11480   0.75630  -3.18300    33    34    29    39
 C    -2.86130  -0.56090  -3.38200    34    33    36    35
 C    -3.49260  -1.46150  -2.56490    35    34    45    26
 C    -1.60850  -0.88480  -3.78980    36    34    43    42
 C    -1.35730   3.51700  -1.96160    37    38    31    40
 C    -2.36990   2.72700  -2.48940    38    39    28    37
 C    -2.10410   1.70640  -3.34030    39    38    41    33
 C     0.01610   3.29200  -2.38410    40    70    37    71
 C    -0.80610   1.41000  -3.71800    41    42    39    71
 C    -0.62070   0.06370  -3.97870    42    66    36    41
 C    -0.99760  -2.06570  -3.44950    43    54    36    44
 C    -1.58590  -2.99130  -2.60530    44    43    45    51
 C    -2.87100  -2.63570  -2.18530    45    46    35    44
 C    -3.36300  -2.97130  -0.95740    46    45    47     1
 C    -2.58740  -3.70290  -0.09630    47    46    48    52
 C    -2.80980  -3.37750   1.23840    48    49     2    47
 C    -1.79690  -3.42720   2.14550    49    50     6    48
 C    -0.61900  -3.86950   1.80560    50    49    16    53
 C    -0.72890  -3.75670  -1.78120    51    44    52    56
 C    -1.28410  -4.12150  -0.50080    52    53    47    51
 C    -0.35400  -4.26190   0.52200    53    59    50    52
 C     0.35290  -1.87920  -3.53510    54    43    55    66
 C     1.26290  -2.64950  -2.86040    55    54    62    56
 C     0.71330  -3.62060  -1.93480    56    58    55    51
 C     2.81900  -3.39610  -0.74350    57    58    63    75
 C     1.55630  -3.91140  -0.83520    58    57    59    56
 C     0.97860  -4.16260   0.38060    59    53    58    77
 C     3.84680  -0.02780  -2.47140    60    80    67    61
 C     2.79890  -0.68530  -3.10450    61    60    65    62
 C     2.54980  -2.06940  -2.72340    62    63    55    61
 C     3.35450  -2.56050  -1.69750    63    81    57    62
 C     2.67750   2.13290  -2.50720    64    67    68    72
 C     1.74390   0.13600  -3.58350    65    66    61    68
 C     0.58680  -0.54380  -3.86780    66    42    65    54
 C     3.78780   1.32550  -2.18370    67    60    85    64
 C     1.62800   1.56590  -3.28630    68    64    71    65
 C     0.67230   4.17230  -0.26080    69    32    87    70
 C     1.07330   3.72100  -1.53600    70    69    72    40
 C     0.30990   2.18370  -3.28670    71    41    68    40
 C     2.38520   3.20450  -1.61170    72    70    73    64
 C     3.17840   3.24720  -0.43930    73    84    89    72
 C     4.38380  -2.15680   0.20720    74    75    78    81
 C     3.42970  -3.06090   0.47100    75    74    76    57
 C     2.70910  -3.05110   1.65930    76    77    75    90
 C     1.53010  -3.68110   1.57360    77    76    16    59
 C     4.65530  -1.20220   1.12620    78    74    82    93
 C     5.08390   0.31330  -0.64030    79    85    80    82
 C     4.66640  -0.62090  -1.53400    80    81    79    60
 C     4.37000  -1.86070  -1.12880    81    80    63    74
 C     5.06020   0.02160   0.71140    82    78    86    79
 C     4.18020   2.11680   1.17710    83    86    88    84
 C     4.21320   2.42370  -0.17600    84    85    73    83
 C     4.58770   1.50400  -1.06550    85    84    79    67
 C     4.54180   0.90570   1.59980    86    83    82    94
 C     1.42140   3.97250   0.85810    87    89    69    98
 C     3.13960   2.73920   1.75360    88    83    89    96
 C     2.63240   3.53800   0.77700    89    87    88    73
 C     2.83350  -1.95270   2.56720    90    93    76    91
 C     1.68300  -1.47150   3.31280    91    17    90    92
 C     1.54440  -0.03110   3.58670    92    95    22    91
 C     3.84130  -1.06730   2.24690    93    94    90    78
 C     3.74620   0.26970   2.54010    94    93    86    95
 C     2.60420   0.83810   3.14290    95    94    96    92
 C     2.31510   2.18620   2.77210    96    97    88    95
 C     1.00450   2.69030   2.87850    97    96    98    23
 C     0.63510   3.66540   1.92650    98    13    87    97
