    98
C98-C1-133                                                                      
 C    -2.37830  -3.71070  -0.14150     1     2    13     4
 C    -3.51280  -2.97620   0.08140     2     1     3     7
 C    -3.63370  -2.56220   1.40940     3    54     6     2
 C    -1.43940  -4.02380   0.84120     4    27     5     1
 C    -1.50680  -3.52260   2.11540     5     4     6    24
 C    -2.65600  -2.79400   2.35060     6    55     3     5
 C    -4.02010  -2.17280  -0.95620     7     2     8    10
 C    -4.74490  -1.03790  -0.53550     8     9    51     7
 C    -4.79690   0.09920  -1.26940     9    12     8    31
 C    -3.26140  -2.06650  -2.18130    10    11    14     7
 C    -3.32470  -0.84750  -2.84790    11    12    10    18
 C    -4.09830   0.19120  -2.42330    12     9    32    11
 C    -1.70930  -3.66590  -1.34620    13    20     1    14
 C    -2.06410  -2.79650  -2.38280    14    13    10    16
 C     0.33060  -2.83050  -2.97210    15    19    22    16
 C    -0.96690  -2.29350  -3.18460    16    15    17    14
 C    -1.05240  -0.94490  -3.70770    17    18    35    16
 C    -2.24000  -0.29650  -3.52280    18    17    33    11
 C     1.41770  -2.04900  -3.34010    19    90    36    15
 C    -0.42610  -4.07430  -1.10760    20    22    13    27
 C     1.85230  -3.78370  -1.33900    21    89    22    28
 C     0.60270  -3.75010  -1.92730    22    20    21    15
 C    -0.36090  -2.05470   3.55990    23    93    56    24
 C    -0.27550  -3.18250   2.74810    24    23    25     5
 C     1.00040  -3.44440   2.17000    25    24    26    95
 C     0.97890  -4.07370   0.88760    26    28    27    25
 C    -0.24480  -4.26810   0.26000    27     4    26    20
 C     2.03490  -3.90550   0.03530    28    98    26    21
 C    -4.22270   2.31390  -0.76920    29    31    38    30
 C    -3.58440   2.41270  -1.98680    30    32    42    29
 C    -4.82360   1.17380  -0.41020    31    29    50     9
 C    -3.48880   1.34410  -2.78390    32    30    12    33
 C    -2.31900   1.08540  -3.43860    33    32    18    34
 C    -1.18450   1.91770  -3.40150    34    33    40    41
 C     0.10060  -0.10300  -3.88870    35    36    17    40
 C     1.30670  -0.73580  -3.73990    36    35    69    19
 C    -1.47150   4.06390  -0.00640    37    39    43    46
 C    -3.52470   3.03390   0.14410    38    29    39    48
 C    -2.56290   3.66680  -0.58610    39    37    38    42
 C     0.08020   1.34100  -3.66430    40    34    44    35
 C    -1.29310   3.07740  -2.57470    41    45    42    34
 C    -2.51620   3.23130  -1.88270    42    30    39    41
 C    -0.29760   4.13680  -0.69420    43    67    37    45
 C     1.29640   2.00140  -3.20050    44    70    71    40
 C    -0.12220   3.61010  -1.99440    45    41    43    71
 C    -1.24980   3.81820   1.32030    46    60    37    47
 C    -2.10020   3.02720   2.10150    47    46    48    57
 C    -3.33250   2.62690   1.49410    48    49    38    47
 C    -3.96850   1.41640   1.86950    49    48    52    50
 C    -4.73400   0.73270   0.87570    50    31    51    49
 C    -4.80050  -0.63700   0.78890    51    54    50     8
 C    -3.33300   0.61700   2.85570    52    53    49    58
 C    -3.55150  -0.77690   2.75930    53    55    54    52
 C    -4.22690  -1.36690   1.72540    54    51    53     3
 C    -2.64420  -1.69960   3.15850    55    56    53     6
 C    -1.50900  -1.32580   3.71330    56    55    59    23
 C    -1.42710   2.23110   3.09320    57    58    47    63
 C    -2.08450   1.01990   3.44670    58    59    57    52
 C    -1.22710  -0.00390   3.88440    59    56    65    58
 C     0.08530   3.92190   1.47900    60    46    62    67
 C     2.09060   3.11650   2.21950    61    62    76    68
 C     0.75080   3.26110   2.46930    62    60    61    63
 C     0.02900   2.34130   3.26950    63    62    64    57
 C     0.82820   1.22230   3.72870    64    65    77    63
 C     0.13640   0.07120   3.97650    65    64    59    93
 C     1.95730   3.90360  -0.06850    66    67    68    74
 C     0.67780   4.18150   0.23330    67    66    43    60
 C     2.71110   3.49460   1.02200    68    83    66    61
 C     2.47810  -0.09380  -3.42270    69    36    70    85
 C     2.50850   1.25390  -3.13430    70    69    72    44
 C     1.18330   3.15010  -2.30970    71    45    74    44
 C     3.55280   1.59320  -2.28850    72    73    70    87
 C     3.42650   2.65080  -1.42770    73    72    82    74
 C     2.26140   3.40760  -1.37540    74    73    66    71
 C     3.90720   1.91190   1.93050    75    78    83    76
 C     2.81880   2.07150   2.73520    76    75    61    77
 C     2.20760   1.03710   3.43180    77    76    64    80
 C     4.44900   0.69520   1.76320    78    75    84    79
 C     3.88210  -0.38420   2.38510    79    78    96    80
 C     2.77460  -0.28610   3.23460    80    79    94    77
 C     4.82410   1.16820  -0.50720    81    82    87    84
 C     4.23690   2.38570  -0.34260    82    83    81    73
 C     3.83110   2.77380   0.88020    83    68    82    75
 C     4.95630   0.31480   0.55720    84    91    78    81
 C     3.34010  -1.02070  -2.84460    85    90    86    69
 C     4.31540  -0.69120  -1.92090    86    87    85    92
 C     4.43820   0.66690  -1.71710    87    81    86    72
 C     3.74100  -2.72170  -0.78200    88    89    92    98
 C     2.88760  -3.05020  -1.79500    89    90    21    88
 C     2.66950  -2.19470  -2.80210    90    89    85    19
 C     4.76440  -1.02110   0.41730    91    84    92    96
 C     4.51040  -1.57800  -0.82060    92    88    91    86
 C     0.68150  -1.20470   3.78130    93    23    94    65
 C     1.95720  -1.44060   3.32540    94    93    80    95
 C     2.15790  -2.61720   2.49940    95    97    94    25
 C     4.11040  -1.48180   1.57860    96    79    97    91
 C     3.26310  -2.57600   1.59790    97    96    98    95
 C     3.16690  -3.22560   0.37940    98    28    97    88
