    98
C98-C2-162                                                                      
 C    -3.49660   0.59790   2.59770     1     2     6    63
 C    -3.52740  -0.76220   2.54900     2     1     3     9
 C    -4.26230  -1.28840   1.46930     3     4    62     2
 C    -3.91750  -2.46460   0.89910     4     5     3    32
 C    -2.95090  -3.18440   1.43770     5     4    23    10
 C    -2.41420   1.27430   3.12810     6    74     1     7
 C    -1.24590   0.64990   3.62360     7     6     8    19
 C    -1.23160  -0.78850   3.60370     8     7    12     9
 C    -2.40910  -1.46280   3.07360     9    10     2     8
 C    -2.21910  -2.72090   2.52020    10    14     5     9
 C     1.26200  -0.67870   3.61830    11    15    20    12
 C     0.05210  -1.46640   3.58970    12    11     8    13
 C     0.13140  -2.80140   3.02370    13    14    27    12
 C    -1.02310  -3.34020   2.48500    14    10    13    24
 C     2.43150  -1.29930   3.11740    15    26    98    11
 C     2.42390   1.44160   3.07960    16    21    97    20
 C     1.03080   3.31280   2.49590    17    21    79    18
 C    -0.12260   2.77170   3.04220    18    17    76    19
 C    -0.03540   1.43500   3.60130    19     7    20    18
 C     1.24800   0.76200   3.60860    20    11    19    16
 C     2.23460   2.69990   2.52240    21    17    94    16
 C     0.09100  -4.44580   0.75770    22    24    25    28
 C    -2.16420  -3.96960   0.65080    23    24     5    30
 C    -1.03630  -4.14770   1.36090    24    22    23    14
 C     1.26400  -4.11320   1.32090    25    22    42    27
 C     2.45230  -2.54860   2.53820    26    27    15    40
 C     1.32890  -3.29830   2.46180    27    26    25    13
 C     0.16780  -4.41350  -0.61180    28    34    22    29
 C    -0.91100  -4.05520  -1.40560    29    28    38    30
 C    -2.18570  -3.91100  -0.76130    30    31    23    29
 C    -3.17410  -3.07580  -1.29690    31    33    30    32
 C    -4.08090  -2.41500  -0.45750    32     4    46    31
 C    -2.83590  -2.35120  -2.42080    33    44    31    39
 C     1.46690  -4.12510  -0.89000    34    28    36    42
 C     3.02980  -2.73160  -1.87570    35    54    36    43
 C     1.82140  -3.39060  -2.01280    36    35    34    37
 C     0.78470  -2.86480  -2.84300    37    36    38    56
 C    -0.57080  -3.25550  -2.54580    38    39    29    37
 C    -1.57770  -2.41740  -2.98550    39    33    58    38
 C     3.46620  -2.58940   1.59420    40    90    26    41
 C     3.31900  -3.30910   0.41850    41    42    43    40
 C     2.18520  -4.03530   0.30520    42    41    25    34
 C     3.80010  -2.71220  -0.71370    43    93    41    35
 C    -3.37370  -1.10980  -2.68690    44    45    33    48
 C    -4.29980  -0.50760  -1.86950    45    47    44    46
 C    -4.63300  -1.18430  -0.71750    46    32    45    62
 C    -4.23780   0.86020  -1.80760    47    45    60    53
 C    -2.41470  -0.38900  -3.37940    48    58    44    52
 C     1.31240   1.21490  -3.56750    49    59    50    68
 C     0.04730   0.73260  -3.80360    50    49    51    57
 C    -1.05400   1.60800  -3.48760    51    52    50    70
 C    -2.32330   0.99450  -3.31350    52    53    48    51
 C    -3.29240   1.58730  -2.52090    53    72    52    47
 C     3.28230  -1.56550  -2.53540    54    35    55    86
 C     2.30560  -0.97160  -3.32340    55    59    54    56
 C     1.03810  -1.58260  -3.50180    56    55    57    37
 C    -0.06640  -0.70890  -3.81110    57    58    56    50
 C    -1.32620  -1.19780  -3.58440    58    57    48    39
 C     2.40610   0.40960  -3.37600    59    49    89    55
 C    -4.50860   1.55000  -0.64560    60    64    47    61
 C    -4.74720   0.86520   0.53790    61    62    63    60
 C    -4.80710  -0.49320   0.47610    62    61     3    46
 C    -4.12290   1.40310   1.65030    63    67    61     1
 C    -3.79280   2.71900  -0.68530    64    66    60    72
 C    -2.17650   4.03180   0.32510    65    66    75    73
 C    -3.30980   3.30260   0.45550    66    65    64    67
 C    -3.44840   2.58220   1.62640    67    63    66    74
 C     1.56780   2.43630  -2.96610    68    80    69    49
 C     0.55830   3.27470  -2.52480    69    68    84    70
 C    -0.79940   2.88650  -2.82150    70    71    69    51
 C    -1.83560   3.41410  -1.98800    71    72    73    70
 C    -3.04010   2.75000  -1.86110    72    53    71    64
 C    -1.46640   4.14600  -0.87190    73    85    71    65
 C    -2.43510   2.53210   2.56830    74    76     6    67
 C    -1.25820   4.10510   1.34650    75    77    65    76
 C    -1.31510   3.28610   2.48310    76    74    75    18
 C    -0.08820   4.44290   0.78080    77    79    75    85
 C     2.16930   3.96220   0.66810    78    79    94    83
 C     1.04060   4.13260   1.37960    79    77    78    17
 C     2.82880   2.37000  -2.40810    80    89    82    68
 C     4.06780   2.41040  -0.43900    81    95    87    82
 C     3.16800   3.08470  -1.27750    82    80    83    81
 C     2.17750   3.91860  -0.74520    83    82    78    84
 C     0.90390   4.07430  -1.38310    84    85    83    69
 C    -0.17110   4.43220  -0.58970    85    73    77    84
 C     4.23800  -0.85200  -1.82180    86    88    93    54
 C     4.61780   1.17980  -0.71750    87    81    88    91
 C     4.28580   0.51640  -1.88010    88    89    86    87
 C     3.36290   1.12920  -2.68570    89    88    80    59
 C     4.13830  -1.40770   1.64140    90    40    92    98
 C     4.80810   0.48250   0.47150    91    92    96    87
 C     4.75660  -0.88080   0.51810    92    91    93    90
 C     4.52150  -1.55170  -0.66900    93    43    86    92
 C     2.96670   3.17720   1.44530    94    95    78    21
 C     3.92870   2.44650   0.91990    95    94    96    81
 C     4.27960   1.26850   1.48220    96    95    91    97
 C     3.54430   0.73850   2.56020    97    98    96    16
 C     3.51660  -0.61630   2.60270    98    97    15    90
