    98
C98-C1-145                                                                      
 C     3.17750   1.76270   2.46970     1     2     6    75
 C     3.58480   0.47020   2.59610     2     1     3     9
 C     4.42540   0.01980   1.57410     3     4     2    72
 C     4.47910  -1.28170   1.24590     4     3     5    22
 C     3.71590  -2.18550   1.89480     5     4    23    10
 C     1.97080   2.20720   2.97660     6    14     1     7
 C     1.05160   1.38210   3.60410     7     6    18     8
 C     1.42300  -0.01750   3.72570     8     9    12     7
 C     2.70110  -0.44220   3.24210     9    10     2     8
 C     2.81950  -1.77560   2.85070    10     5    34     9
 C    -0.92090  -0.49860   3.83090    11    35    12    19
 C     0.36190  -0.99670   3.78080    12    11    33     8
 C     0.27790   3.74120   2.10400    13    14    77    17
 C     1.59670   3.32500   2.25700    14    74     6    13
 C    -2.27380   3.68830   1.07920    15    78    94    16
 C    -2.07450   3.04610   2.31580    16    15    97    17
 C    -0.72320   3.00460   2.81140    17    13    16    18
 C    -0.30040   1.82990   3.55560    18    19     7    17
 C    -1.24960   0.84600   3.74420    19    98    18    11
 C     4.06660  -2.38850  -0.76680    20    22    21    42
 C     3.39020  -3.35510  -0.08300    21    25    23    20
 C     4.63750  -1.36730  -0.11100    22    20    41     4
 C     3.18750  -3.24810   1.25080    23     5    21    27
 C     0.15260  -4.21240  -1.16710    24    32    26    44
 C     2.38710  -3.80700  -0.86010    25    21    26    43
 C     1.20410  -4.28180  -0.31190    26    24    25    29
 C     1.98150  -3.57020   1.80030    27    23    29    34
 C    -0.38840  -3.94790   1.56650    28    29    31    37
 C     0.93950  -4.14180   1.09020    29    27    28    26
 C    -2.68000  -3.51680   0.85040    30    38    31    89
 C    -1.44840  -4.09520   0.62060    31    30    32    28
 C    -1.13000  -4.19590  -0.73280    32    24    82    31
 C     0.50060  -2.33550   3.26230    33    34    12    37
 C     1.75580  -2.66120   2.82330    34    33    10    27
 C    -2.01780  -1.23050   3.43530    35    11    90    36
 C    -1.90420  -2.48540   2.85150    36    35    38    37
 C    -0.62230  -3.05930   2.70530    37    36    33    28
 C    -2.93080  -2.75530   1.95510    38    30    93    36
 C     4.07860   0.17010  -1.89200    39    41    50    40
 C     3.39590  -0.92070  -2.57040    40    42    47    39
 C     4.66430  -0.11960  -0.64360    41    22    72    39
 C     3.44710  -2.17450  -1.96370    42    20    43    40
 C     2.43110  -3.08910  -2.06440    43    45    42    25
 C     0.20130  -3.53750  -2.38900    44    65    45    24
 C     1.31400  -2.85790  -2.82430    45    43    44    46
 C     1.15220  -1.62550  -3.52070    46    45    47    67
 C     2.23160  -0.67730  -3.37530    47    48    40    46
 C     1.89830   0.64520  -3.54710    48    47    49    69
 C     2.58750   1.68290  -2.95320    49    52    48    50
 C     3.64970   1.50360  -2.06220    50    49    39    51
 C     3.74940   2.47350  -1.00110    51    54    71    50
 C     1.72030   2.73170  -2.89190    52    53    49    58
 C     1.83880   3.65460  -1.94070    53    52    56    54
 C     2.81330   3.51520  -1.00190    54    53    73    51
 C    -1.53220   4.05620  -0.99010    55    64    57    78
 C     0.71870   4.23830  -1.43890    56    53    57    76
 C    -0.54050   3.93550  -1.92240    57    55    56    62
 C     0.48720   2.37160  -3.37120    58    52    69    62
 C    -2.75810  -0.07670  -3.21340    59    70    79    60
 C    -1.76440   0.82000  -3.57080    60    59    68    61
 C    -1.88710   2.16320  -3.03720    61    62    63    60
 C    -0.70690   2.95210  -2.93740    62    58    57    61
 C    -2.96620   2.43780  -2.11620    63    64    80    61
 C    -2.69910   3.37400  -1.10410    64    55    94    63
 C    -1.05540  -3.15150  -2.68770    65    44    82    66
 C    -1.29540  -1.98980  -3.40440    66    70    65    67
 C    -0.20770  -1.16770  -3.79910    67    66    68    46
 C    -0.48670   0.24090  -3.90920    68    69    67    60
 C     0.59860   1.07430  -3.80430    69    58    68    48
 C    -2.53500  -1.43290  -3.13650    70    59    66    84
 C     4.18610   2.04180   0.27070    71    72    75    51
 C     4.64180   0.77440   0.41410    72    71    41     3
 C     2.25030   4.04910   0.12780    73    74    76    54
 C     2.57220   3.51230   1.30550    74    73    75    14
 C     3.51730   2.55780   1.38690    75    74     1    71
 C     0.98100   4.47370  -0.09680    76    73    77    56
 C    -0.01210   4.38630   0.86530    77    78    76    13
 C    -1.27200   4.27000   0.37110    78    15    77    55
 C    -3.80710   0.21450  -2.36020    79    80    59    86
 C    -3.92040   1.45050  -1.77540    80    79    81    63
 C    -4.47480   1.40790  -0.48660    81    95    87    80
 C    -1.91540  -3.63650  -1.71990    82    83    32    65
 C    -3.11090  -3.06010  -1.46750    83    82    84    89
 C    -3.43920  -1.96240  -2.22490    84    86    83    70
 C    -4.71290  -0.97960  -0.44220    85    87    86    88
 C    -4.22160  -0.95210  -1.73740    86    84    85    79
 C    -4.81720   0.24390   0.17090    87    85    81    91
 C    -4.30730  -2.05040   0.33850    88    89    93    85
 C    -3.52640  -3.05660  -0.15640    89    88    83    30
 C    -3.03780  -0.33880   3.14760    90    92    98    35
 C    -4.50940   0.41260   1.51540    91    92    96    87
 C    -4.04170  -0.64420   2.25870    92    93    91    90
 C    -3.95990  -1.87130   1.66450    93    92    88    38
 C    -3.20700   3.25100   0.16700    94    95    64    15
 C    -4.05880   2.28550   0.46820    95    94    96    81
 C    -4.01190   1.68770   1.68910    96    95    91    97
 C    -3.00010   2.01460   2.59770    97    98    96    16
 C    -2.54740   0.93910   3.31980    98    19    97    90
