    98
C98-C1-104                                                                      
 C    -4.87350   1.06550  -0.22320     1     5    57    17
 C    -2.00010   3.79450   0.49530     2     3    64     6
 C    -3.19480   3.21430   0.20000     3     2     4    55
 C    -3.73080   2.47440   1.25410     4     5     3     8
 C    -4.57350   1.43670   1.04630     5     4     1    18
 C    -1.34370   3.62060   1.70670     6    12     2     7
 C    -1.77640   2.71640   2.67350     7     8     6    10
 C    -2.99880   2.18460   2.41220     8     7    19     4
 C     0.53850   2.42090   3.28800     9    11    10    14
 C    -0.80930   1.98750   3.42250    10     9     7    22
 C     1.54160   1.52380   3.58280    11    96     9    21
 C    -0.04590   3.92120   1.53090    12     6    14    75
 C     2.18210   3.42310   1.78200    13    95    14    76
 C     0.92080   3.42620   2.34370    14    12    13     9
 C    -4.78230  -1.18320   0.44500    15    17    27    16
 C    -4.48170  -0.78040   1.72830    16    18    25    15
 C    -4.94450  -0.27460  -0.53190    17    15    36     1
 C    -4.34910   0.51330   2.02010    18    16     5    19
 C    -3.33600   0.92550   2.84300    19    18     8    23
 C    -0.00310  -0.33800   3.90060    20    21    30    22
 C     1.27970   0.19630   3.84250    21    11    49    20
 C    -1.10940   0.58920   3.77140    22    23    20    10
 C    -2.39640   0.06420   3.44730    23    19    22    24
 C    -2.55240  -1.32760   3.16340    24    29    25    23
 C    -3.61780  -1.66750   2.27880    25    16    28    24
 C    -2.46120  -3.42340   1.36850    26    28    32    31
 C    -4.12520  -2.33660   0.16370    27    15    28    34
 C    -3.51530  -2.66500   1.34960    28    26    25    27
 C    -1.41610  -2.18190   3.18570    29    31    24    30
 C    -0.11530  -1.74100   3.56340    30    29    20    51
 C    -1.45700  -3.26310   2.29300    31    53    26    29
 C    -1.96690  -3.91160   0.19680    32    41    26    33
 C    -2.40150  -3.48410  -1.08150    33    34    32    42
 C    -3.53410  -2.64590  -1.09210    34    33    35    27
 C    -3.63590  -1.65830  -2.10210    35    34    36    38
 C    -4.38580  -0.49760  -1.76050    36    17    37    35
 C    -4.07200   0.75480  -2.21320    37    40    36    57
 C    -2.55930  -1.50240  -3.03780    38    39    35    43
 C    -2.36950  -0.19270  -3.50140    39    69    40    38
 C    -3.07600   0.89470  -3.06290    40    37    58    39
 C    -0.70130  -4.24190   0.50080    41    44    32    53
 C    -1.36640  -3.37980  -2.06540    42    45    43    33
 C    -1.39450  -2.34870  -3.05200    43    42    38    67
 C     0.20400  -4.28400  -0.45360    44    41    46    45
 C    -0.09690  -3.84480  -1.71600    45    44    65    42
 C     1.50070  -4.10560  -0.14860    46    44    89    48
 C     3.08730  -3.07890   1.17140    47    48    54    87
 C     1.91810  -3.76900   1.14400    48    47    46    52
 C     2.41560  -0.50650   3.47940    49    50    21    91
 C     2.33870  -1.81460   3.07070    50    49    54    51
 C     1.08020  -2.46390   3.08810    51    50    52    30
 C     0.92580  -3.52560   2.13190    52    53    48    51
 C    -0.35340  -3.84810   1.77710    53    31    52    41
 C     3.33460  -2.14810   2.14330    54    47    93    50
 C    -3.43280   2.82820  -1.13750    55    57     3    56
 C    -2.37240   3.00610  -2.08660    56    58    63    55
 C    -4.29860   1.72640  -1.27320    57     1    37    55
 C    -2.27620   2.00290  -3.05100    58    59    40    56
 C    -1.10820   1.65490  -3.63500    59    58    61    69
 C     1.17780   1.56860  -3.66270    60    71    61    70
 C     0.06650   2.31800  -3.39870    61    60    59    62
 C     0.12380   3.34970  -2.42360    62    61    63    73
 C    -1.13420   3.64500  -1.76560    63    64    56    62
 C    -1.02840   4.06550  -0.44880    64    75     2    63
 C     1.10000  -3.41750  -2.22820    65    45    66    89
 C     1.16560  -2.41220  -3.17010    66    65    83    67
 C    -0.11140  -1.85670  -3.58160    67    68    66    43
 C    -0.05860  -0.50340  -4.01390    68    69    70    67
 C    -1.16780   0.28080  -3.92260    69    39    68    59
 C     1.12090   0.19850  -3.97150    70    84    68    60
 C     2.38620   1.82410  -3.10390    71    60    77    72
 C     2.58340   2.81460  -2.14010    72    71    80    73
 C     1.40860   3.56750  -1.76650    73    74    72    62
 C     1.38950   4.02620  -0.42300    74    75    76    73
 C     0.17020   4.20890   0.18360    75    64    74    12
 C     2.42100   3.70290   0.44020    76    81    74    13
 C     3.09150   0.65170  -3.15070    77    78    84    71
 C     4.06880   0.42330  -2.28430    78    77    85    79
 C     4.37930   1.35550  -1.33450    79    78    97    80
 C     3.65200   2.54720  -1.22720    80    81    79    72
 C     3.53140   2.99490   0.06630    81    76    80    94
 C     3.45760  -1.93580  -2.23500    82    88    85    83
 C     2.39820  -1.67470  -3.17730    83    84    66    82
 C     2.29990  -0.36250  -3.61080    84    70    77    83
 C     4.27140  -0.85060  -1.83880    85    78    90    82
 C     4.52980  -1.62590   0.34810    86    90    87    93
 C     3.79000  -2.72220   0.02410    87    86    47    88
 C     3.26480  -2.92470  -1.25750    88    89    87    82
 C     2.10850  -3.63690  -1.29520    89    88    46    65
 C     4.80060  -0.69260  -0.58190    90    86    85    97
 C     3.37370   0.38460   3.00130    91    96    92    49
 C     4.31580   0.06740   2.03060    92    93    91    98
 C     4.26910  -1.25230   1.64390    93    86    92    54
 C     3.99930   2.28260   1.16850    94    95    98    81
 C     3.13890   2.55770   2.18740    95    96    13    94
 C     2.81430   1.61550   3.08450    96    95    91    11
 C     4.85860   0.63980  -0.24240    97    90    98    79
 C     4.63900   1.05670   1.05890    98    97    94    92
