    98
C98-C1-96                                                                       
 C     2.69700   0.28980  -3.30570     1     2    11    18
 C     2.58710   1.61750  -3.05760     2     1     3     6
 C     3.48250   2.07890  -2.08200     3    62    17     2
 C    -0.12260   3.75080  -2.07990     4     5     7    69
 C     1.11120   3.34040  -2.45900     5     4    63     6
 C     1.31490   2.21430  -3.24840     6     5     2     9
 C    -1.29590   3.14070  -2.48070     7     4    15     8
 C    -1.17460   1.95120  -3.30440     8    13     9     7
 C     0.14390   1.46040  -3.65210     9    10     8     6
 C     0.31300   0.04100  -3.87250    10    11    32     9
 C     1.60650  -0.46490  -3.69690    11    25     1    10
 C    -3.40720   1.40290  -2.50520    12    93    14    13
 C    -2.27400   1.04050  -3.28380    13    12     8    33
 C    -3.43290   2.47820  -1.64590    14    15    12    98
 C    -2.39350   3.33270  -1.60150    15    14    16     7
 C    -2.15910   3.88740  -0.33760    16    68    96    15
 C     4.32170   1.25520  -1.34680    17    19     3    44
 C     3.61870  -0.51550  -2.64440    18    20     1    19
 C     4.43240  -0.08760  -1.58600    19    17    18    35
 C     3.10680  -1.76440  -2.70150    20    21    18    25
 C     3.38750  -2.64550  -1.73780    21    20    23    34
 C     0.21740  -4.10590  -1.26020    22    30    24    42
 C     2.44550  -3.56430  -1.40140    23    21    24    40
 C     1.22480  -3.62780  -2.04690    24    22    23    27
 C     1.87790  -1.75960  -3.32530    25    11    20    27
 C    -0.45950  -2.26990  -3.29130    26    27    29    32
 C     0.88290  -2.67520  -3.05390    27    25    26    24
 C    -2.69520  -2.45950  -2.39900    28    29    31    88
 C    -1.45140  -2.98110  -2.55940    29    28    30    26
 C    -1.07410  -3.83720  -1.52690    30    22    90    29
 C    -3.02200  -1.22010  -2.90220    31    94    28    33
 C    -0.76520  -0.89730  -3.72920    32    33    10    26
 C    -2.06570  -0.37060  -3.49420    33    31    32    13
 C     4.13490  -2.26220  -0.65210    34    37    21    35
 C     4.66530  -0.96960  -0.50090    35    34    19    36
 C     4.68580  -0.44220   0.82880    36    39    43    35
 C     3.62210  -3.01030   0.37250    37    38    40    34
 C     3.59280  -2.49810   1.60360    38    37    39    53
 C     4.12640  -1.26210   1.82980    39    45    38    36
 C     2.58810  -3.79510  -0.04180    40    37    23    41
 C     1.50400  -4.08930   0.77700    41    42    40    52
 C     0.33770  -4.31890   0.11060    42    54    41    22
 C     4.52400   0.95380   1.03070    43    44    47    36
 C     4.38330   1.78180  -0.06520    44    43    61    17
 C     3.40120  -0.76580   2.87300    45    46    39    48
 C     3.22910   0.54100   3.01550    46    45    47    49
 C     3.79540   1.41050   2.13860    47    46    59    43
 C     2.38670  -1.62200   3.22330    48    53    45    51
 C     2.06670   1.04590   3.51610    49    46    70    50
 C     1.00590   0.23610   3.90480    50    49    72    51
 C     1.17140  -1.19050   3.73570    51    48    57    50
 C     1.41260  -3.51280   2.07000    52    53    41    56
 C     2.50570  -2.73180   2.42890    53    48    38    52
 C    -0.89200  -4.14570   0.66990    54    42    90    55
 C    -1.07260  -3.59640   1.94200    55    54    84    56
 C     0.13180  -3.19640   2.63790    56    52    55    57
 C     0.05690  -2.02540   3.48900    57    58    51    56
 C    -1.16750  -1.40990   3.59980    58    85    57    71
 C     2.99490   2.54020   2.15500    59    60    47    70
 C     2.89070   3.36910   1.07320    60    59    61    65
 C     3.62660   2.94120  -0.03790    61    62    44    60
 C     3.13990   3.12370  -1.29570    62    63     3    61
 C     1.99910   3.76070  -1.48530    63    62    66     5
 C     0.58080   3.85890   1.81390    64    67    74    65
 C     1.67480   4.05190   0.89630    65    60    66    64
 C     1.30610   4.28790  -0.44080    66    69    63    65
 C    -0.70440   4.06070   1.33760    67    76    68    64
 C    -0.95390   4.34130   0.01780    68    69    16    67
 C     0.03140   4.37120  -0.85220    69    68    66     4
 C     1.91380   2.31250   3.00710    70    49    74    59
 C    -1.32580  -0.02720   3.78630    71    78    72    58
 C    -0.26460   0.85310   3.85980    72    71    50    73
 C    -0.48330   2.19390   3.35540    73    74    75    72
 C     0.67370   2.91640   2.87630    74    70    64    73
 C    -1.79680   2.49760   2.82490    75    76    79    73
 C    -1.83680   3.44990   1.81240    76    67    75    96
 C    -3.17310  -0.83320   2.91910    77    80    85    78
 C    -2.56850   0.32320   3.32860    78    77    71    79
 C    -2.88020   1.57490   2.80580    79    78    75    82
 C    -4.15020  -0.81110   2.01850    80    77    86    81
 C    -4.55100   0.38730   1.48340    81    80    95    82
 C    -3.92170   1.60270   1.81090    82    81    97    79
 C    -3.34310  -2.90500   1.11380    83    86    89    84
 C    -2.32920  -2.96090   2.13110    84    85    55    83
 C    -2.30930  -1.88350   3.01150    85    77    58    84
 C    -4.26160  -1.83930   1.12150    86    91    80    83
 C    -4.38420  -1.69250  -1.20380    87    88    91    94
 C    -3.50950  -2.71610  -1.29010    88    87    89    28
 C    -3.01510  -3.38590  -0.17440    89    90    88    83
 C    -1.80500  -3.96390  -0.34900    90    89    54    30
 C    -4.81030  -1.26270   0.00940    91    87    86    95
 C    -4.77810   0.95310  -0.78380    92    98    95    93
 C    -4.29750   0.50530  -1.98970    93    94    12    92
 C    -4.10550  -0.79610  -2.19200    94    93    87    31
 C    -5.00080   0.07650   0.22070    95    92    91    81
 C    -2.79180   3.41960   0.80180    96    97    16    76
 C    -3.82190   2.53430   0.75450    97    96    98    82
 C    -4.21300   2.15330  -0.53340    98    92    14    97
