    98
C98-C2v-13                                                                      
 C    -4.48380   2.18690   0.22150     1     5    20    48
 C    -2.60320   0.68680   3.38260     2    58     3     6
 C    -3.44230   1.43290   2.62500     3     2     4    50
 C    -4.44630   0.69460   1.99360     4     5     3    12
 C    -5.00710   1.08520   0.81110     5     1     4     8
 C    -2.60170  -0.71750   3.38170     6    11    10     2
 C    -4.47640  -2.18690   0.20500     7     9    16    13
 C    -5.35730  -0.00350   0.06180     8     5     9    18
 C    -4.99620  -1.09440   0.81250     9     7    12     8
 C    -1.35170  -1.14090   3.68730    10     6    73    14
 C    -3.44140  -1.45600   2.62010    11     6    12    15
 C    -4.44430  -0.71100   2.00020    12     9    11     4
 C    -3.46250  -2.91480   0.79400    13    30     7    15
 C    -0.71310  -2.29300   3.19340    14    10    26    25
 C    -2.87300  -2.62500   2.02470    15    13    11    26
 C    -4.28240  -2.18030  -1.14870    16    21    17     7
 C    -4.54940  -1.07460  -1.88170    17    16    18    36
 C    -5.11770   0.01310  -1.29640    18    17    19     8
 C    -4.55710   1.10580  -1.88190    19    20    18    37
 C    -4.28160   2.20010  -1.13290    20    33    19     1
 C    -3.19050  -2.91500  -1.41650    21    16    22    30
 C    -2.32790  -2.59500  -2.45330    22    23    21    35
 C    -1.09810  -3.10520  -2.31460    23    22    38    31
 C     1.34010  -1.13790   3.68910    24    77    72    25
 C     0.71220  -2.29310   3.19220    25    24    94    14
 C    -1.49150  -3.02250   2.25460    26    14    28    15
 C     0.72780  -3.68910   1.23060    27    97    94    28
 C    -0.72790  -3.69050   1.22450    28    29    26    27
 C    -1.41200  -3.82880  -0.02570    29    30    31    28
 C    -2.70590  -3.44290  -0.21190    30    29    13    21
 C    -0.66320  -3.76790  -1.17380    31    98    29    23
 C    -1.10160   3.12780  -2.29420    32    34    44    45
 C    -3.19220   2.93400  -1.39890    33    20    34    47
 C    -2.33200   2.62280  -2.44100    34    32    33    42
 C    -2.46520  -1.38220  -3.17250    35    36    22    40
 C    -3.61070  -0.66590  -2.82710    36    37    17    35
 C    -3.61880   0.70360  -2.83230    37    36    42    19
 C    -0.00370  -2.58480  -2.93630    38    23    90    39
 C    -0.00160  -1.35380  -3.60750    39    38    65    40
 C    -1.28100  -0.70130  -3.65870    40    39    41    35
 C    -1.28520   0.74070  -3.65550    41    43    40    42
 C    -2.47110   1.41560  -3.17120    42    37    34    41
 C    -0.00510   1.39110  -3.59330    43    44    41    66
 C    -0.00200   2.61620  -2.91410    44    60    32    43
 C    -0.66670   3.77460  -1.14470    45    51    46    32
 C    -1.41200   3.82860   0.00670    46    47    45    55
 C    -2.70910   3.44060  -0.18380    47    48    46    33
 C    -3.46910   2.90930   0.81710    48    47     1    50
 C    -1.49740   3.00610   2.27490    49    57    55    50
 C    -2.87740   2.60930   2.04250    50    48     3    49
 C     0.66040   3.77360  -1.14900    51    45    53    60
 C     2.69600   3.44200  -0.17900    52    68    53    61
 C     1.39810   3.82910   0.00770    53    52    51    54
 C     0.72120   3.68380   1.26000    54    53    56    55
 C    -0.73060   3.68520   1.25670    55    46    49    54
 C     1.48820   3.00690   2.28080    56    70    54    69
 C    -0.72170   2.26030   3.20200    57    58    49    70
 C    -1.35130   1.10070   3.68750    58     2    73    57
 C     2.32430   2.62620  -2.42880    59    60    61    62
 C     1.09480   3.13110  -2.30000    60    59    44    51
 C     3.18890   2.93050  -1.38840    61    89    59    52
 C     2.46180   1.41300  -3.15490    62    63    59    66
 C     3.60560   0.69360  -2.81890    63    67    62    88
 C     2.45840  -1.38780  -3.16570    64    67    92    65
 C     1.27640  -0.70220  -3.65500    65    39    66    64
 C     1.27480   0.73790  -3.64780    66    43    65    62
 C     3.60650  -0.67580  -2.82130    67    63    86    64
 C     3.45690   2.91450   0.82230    68    52    82    69
 C     2.86930   2.60930   2.04980    69    68    80    56
 C     0.70570   2.26220   3.20430    70    71    56    57
 C     1.33660   1.10520   3.69300    71    79    72    70
 C     0.63760  -0.01710   3.99550    72    73    71    24
 C    -0.65180  -0.01890   3.99340    73    72    58    10
 C     4.98600  -1.09120   0.81600    74    78    75    83
 C     4.43040  -0.69650   1.99810    75    74    76    81
 C     3.42700  -1.44220   2.62140    76    77    75    93
 C     2.58610  -0.70510   3.38400    77    76    24    79
 C     4.47180  -2.18570   0.20820    78    74    85    95
 C     2.59150   0.69700   3.39200    79    71    80    77
 C     3.43820   1.43720   2.63660    80    79    81    69
 C     4.44020   0.70520   2.00070    81    84    80    75
 C     4.47560   2.19550   0.22540    82    84    89    68
 C     5.34800   0.00160   0.06620    83    84    74    87
 C     4.99850   1.09320   0.81670    84    82    81    83
 C     4.28140  -2.18320  -1.14630    85    91    86    78
 C     4.54810  -1.07660  -1.87890    86    85    87    67
 C     5.11110   0.01470  -1.29350    87    86    88    83
 C     4.55040   1.10790  -1.87890    88    89    87    63
 C     4.28470   2.20210  -1.13110    89    61    88    82
 C     1.09030  -3.10860  -2.31600    90    92    38    98
 C     3.18900  -2.92130  -1.41520    91    85    92    96
 C     2.32310  -2.60310  -2.44900    92    90    91    64
 C     2.87290  -2.61780   2.01990    93    95    76    94
 C     1.49460  -3.01980   2.25790    94    25    27    93
 C     3.45510  -2.91340   0.78930    95    96    78    93
 C     2.70070  -3.44780  -0.21040    96    95    97    91
 C     1.40350  -3.83170  -0.02550    97    96    98    27
 C     0.66160  -3.77380  -1.17440    98    31    97    90
