    98
C98-C1-2                                                                        
 C    -3.20770   1.61950   2.58960     1     2    12    62
 C    -3.81490   0.40330   2.53410     2     1     3     7
 C    -4.80280   0.26860   1.52930     3     4    59     2
 C    -5.06670  -0.93480   0.94430     4     5     3    22
 C    -4.36500  -1.99850   1.37680     5     4    23     8
 C    -1.64240  -0.55640   3.43210     6    16    18     7
 C    -3.02420  -0.70300   2.96580     7     8     2     6
 C    -3.39410  -1.89650   2.35250     8    10     5     7
 C    -1.20330  -2.78990   2.61740     9    11    10    18
 C    -2.48030  -2.87000   2.13640    10     8     9    24
 C    -0.33120  -3.55950   1.92260    11    98     9    26
 C    -1.91640   1.78010   3.07640    12    64     1    16
 C     2.10060   2.41220   2.61150    13    14    91    70
 C     0.79520   2.27100   2.99300    14    13    65    15
 C     0.34500   0.98860   3.50560    15    16    14    19
 C    -1.07160   0.74790   3.50940    16    12     6    15
 C     0.75370  -1.43840   3.34730    17    19    97    18
 C    -0.69520  -1.64220   3.30650    18     9     6    17
 C     1.30020  -0.11140   3.48980    19    17    92    15
 C    -4.77960  -1.64480  -1.27840    20    21    30    22
 C    -4.10560  -2.73550  -0.84450    21    20    23    44
 C    -5.34300  -0.75240  -0.38960    22    29     4    20
 C    -3.94690  -2.94930   0.48680    23    24    21     5
 C    -2.81820  -3.50460   0.93310    24    23    25    10
 C    -1.83030  -3.95070   0.08900    25    26    24    43
 C    -0.63920  -4.07970   0.66310    26    25    46    11
 C    -4.65950   1.01760  -1.76220    27    49    29    28
 C    -4.02390   0.12340  -2.59100    28    30    36    27
 C    -5.28700   0.58520  -0.62070    29    22    27    59
 C    -4.07530  -1.18490  -2.35350    30    28    20    31
 C    -2.96270  -1.94920  -2.59080    31    30    44    34
 C     0.76530  -0.13070  -3.45110    32    51    56    33
 C     0.71450  -1.58170  -3.17790    33    41    38    32
 C    -1.75120  -1.47120  -3.13800    34    31    38    35
 C    -1.70060  -0.05890  -3.40680    35    36    51    34
 C    -2.86570   0.66510  -3.08550    36    50    28    35
 C    -0.62070  -3.33690  -1.97860    37    45    43    38
 C    -0.55620  -2.20700  -2.90980    38    34    33    37
 C     2.91440  -3.39530  -0.87660    39    84    89    40
 C     1.83670  -3.29240  -1.78980    40    45    39    41
 C     1.91670  -2.21400  -2.71760    41    42    40    33
 C     3.12030  -1.50840  -2.70040    42    55    85    41
 C    -1.85710  -3.59700  -1.29070    43    44    25    37
 C    -3.00970  -2.96850  -1.67220    44    43    31    21
 C     0.58480  -3.75130  -1.38010    45    40    46    37
 C     0.49850  -4.12240  -0.02850    46    26    87    45
 C    -2.61570   3.65390  -0.62210    47    60    48    54
 C    -3.78250   2.93570  -0.64980    48    47    49    58
 C    -3.90510   2.14260  -1.77690    49    27    48    50
 C    -2.82360   1.95630  -2.64750    50    53    36    49
 C    -0.44840   0.63230  -3.45360    51    35    32    52
 C    -0.41570   2.03970  -3.03690    52    53    57    51
 C    -1.63520   2.61920  -2.57870    53    50    54    52
 C    -1.60320   3.55860  -1.56920    54    73    53    47
 C     3.16370  -0.16060  -2.96740    55    42    80    56
 C     2.00230   0.56930  -3.25200    56    55    32    71
 C     0.82120   2.62430  -2.60020    57    71    52    72
 C    -4.30880   2.43320   0.57170    58    59    62    48
 C    -5.01460   1.25670   0.55540    59    58    29     3
 C    -1.96120   3.96930   0.52130    60    61    63    47
 C    -2.37190   3.39180   1.65630    61    60    62    64
 C    -3.47850   2.62760   1.67160    62    61     1    58
 C    -0.65350   4.18030   0.30690    63    60    66    73
 C    -1.42250   2.93580   2.52010    64    61    65    12
 C    -0.08790   3.19610   2.39410    65    64    14    66
 C     0.32980   3.94590   1.23900    66    69    63    65
 C     3.06820   3.20950  -1.02060    67    68    76    74
 C     1.87570   3.76010  -0.64470    68    67    72    69
 C     1.61590   3.86750   0.77020    69    66    70    68
 C     2.53330   3.25010   1.58340    70    77    69    13
 C     2.02540   1.93660  -2.81030    71    57    74    56
 C     0.78970   3.60760  -1.52910    72    73    68    57
 C    -0.42340   3.95530  -1.03440    73    54    72    63
 C     3.16800   2.35610  -2.10030    74    81    67    71
 C     4.85530   1.90110  -0.67390    75    76    78    81
 C     4.06820   2.86490  -0.14090    76    75    77    67
 C     3.73020   2.81010   1.17030    77    70    76    90
 C     5.35690   0.88180   0.09580    78    82    75    93
 C     4.92180  -0.65590  -1.64680    79    85    80    82
 C     4.29640   0.34030  -2.34430    80    81    79    55
 C     4.28280   1.59610  -1.88810    81    80    74    75
 C     5.42640  -0.38410  -0.37890    82    78    86    79
 C     4.44110  -2.37260   0.36910    83    86    88    84
 C     4.05050  -2.68320  -0.92280    84    85    39    83
 C     4.21630  -1.78150  -1.89080    85    84    79    42
 C     5.07200  -1.22980   0.64790    86    83    82    94
 C     1.49660  -3.89590   0.84820    87    89    46    98
 C     3.49960  -2.84610   1.22720    88    89    83    96
 C     2.68150  -3.59780   0.45340    89    87    88    39
 C     4.09190   1.73130   1.91010    90    93    77    91
 C     3.03770   1.41930   2.74460    91    13    90    92
 C     2.68620   0.11560   3.12380    92    91    95    19
 C     4.89580   0.78830   1.40420    93    90    94    78
 C     4.65050  -0.50740   1.75050    94    93    86    95
 C     3.55460  -0.89560   2.58820    95    96    94    92
 C     2.98160  -2.15350   2.36100    96    95    97    88
 C     1.63860  -2.41440   2.74620    97    98    96    17
 C     0.99030  -3.40320   2.01480    98    11    87    97
