    98
C98-C1-216                                                                      
 C     1.12820   3.05440   2.89550     1     7    60     2
 C     1.30550   1.89110   3.63730     2     1    58    10
 C     0.24450  -0.24240   4.22520     3     4    14    10
 C     1.51450  -0.81640   3.95610     4    59     5     3
 C     1.70080  -2.08950   3.47430     5     6    29     4
 C     0.66640  -2.88370   3.31460     6     5    15    21
 C    -0.08680   3.52890   2.52530     7     1    61     8
 C    -1.28460   2.92140   2.87970     8     7    17     9
 C    -1.20400   1.69650   3.65340     9    12     8    10
 C     0.10590   1.17430   4.02530    10     3     2     9
 C    -3.33900   1.14360   2.62210    11    16    91    12
 C    -2.30190   0.77630   3.51270    12    11    13     9
 C    -2.12620  -0.62370   3.70470    13    14    27    12
 C    -0.85830  -1.12940   4.06320    14    13    15     3
 C    -0.57920  -2.44650   3.63080    15     6    23    14
 C    -3.35650   2.28170   1.86990    16    17    11    98
 C    -2.34690   3.19330   1.97050    17    16    18     8
 C    -2.09610   3.87970   0.77110    18    63    95    17
 C     1.24630  -4.16090   0.09990    19    30    20    26
 C     1.66900  -3.83190   1.36270    20    19    21    28
 C     0.63580  -3.77830   2.28530    21     6    24    20
 C    -2.56230  -2.70790   2.47000    22    23    27    44
 C    -1.39620  -3.19070   2.83300    23    22    24    15
 C    -0.68760  -3.96930   1.97150    24    23    21    25
 C    -1.13090  -4.21740   0.68140    25    26    24    45
 C    -0.10530  -4.35050  -0.22120    26    48    25    19
 C    -2.95360  -1.48830   2.93460    27    92    22    13
 C     2.80320  -2.99230   1.49560    28    29    20    32
 C     2.77760  -2.15510   2.62520    29    51     5    28
 C     1.90460  -3.73300  -1.01990    30    19    41    31
 C     3.04230  -2.91720  -0.97160    31    30    36    32
 C     3.51920  -2.51440   0.34080    32    33    28    31
 C     4.21300  -1.26010   0.47230    33    34    50    32
 C     4.37780  -0.51820  -0.70050    34    37    52    33
 C     2.26640  -2.08590  -3.19820    35    43    38    36
 C     3.22020  -2.09300  -2.12640    36    37    31    35
 C     3.90560  -0.90240  -1.91900    37    34    40    36
 C     2.07300  -0.86220  -3.87100    38    39    81    35
 C     2.71150   0.28100  -3.54060    39    40    38    64
 C     3.63930   0.26280  -2.61280    40    39    55    37
 C     0.97480  -3.71590  -2.04340    41    43    30    48
 C    -0.07120  -2.48720  -3.68670    42    80    43    49
 C     1.12730  -2.91090  -3.13340    43    41    42    35
 C    -3.07230  -2.95480   1.21030    44    84    22    45
 C    -2.37590  -3.67080   0.23960    45    44    25    46
 C    -2.57350  -3.27560  -1.12640    46    47    45    86
 C    -1.48390  -3.54080  -2.01690    47    49    48    46
 C    -0.27960  -4.05150  -1.53010    48    26    47    41
 C    -1.31840  -2.76060  -3.14000    49    89    47    42
 C     4.13750  -0.47730   1.66240    50    51    54    33
 C     3.37410  -0.94330   2.69740    51    29    50    59
 C     4.40300   0.86950  -0.70700    52    53    55    34
 C     4.29200   1.55570   0.41290    53    52    54    68
 C     4.17040   0.90680   1.60350    54    53    57    50
 C     3.84630   1.36070  -1.85610    55    40    52    66
 C     3.13120   2.82560   1.68450    56    60    57    68
 C     3.41970   1.72110   2.42660    57    56    54    58
 C     2.54430   1.23470   3.39100    58    59    57     2
 C     2.60010  -0.11350   3.52970    59    58     4    51
 C     2.01910   3.48540   1.92390    60    56    62     1
 C     0.10210   4.21300   1.33340    61    63    62     7
 C     1.37530   4.10590   0.89840    62    61    60    71
 C    -0.86510   4.32630   0.45460    63    61    18    72
 C     1.88340   1.38130  -3.68270    64    73    39    65
 C     1.95870   2.51770  -2.86880    65    64    69    66
 C     3.03690   2.52920  -1.91940    66    67    55    65
 C     2.92250   3.25310  -0.71470    67    66    71    68
 C     3.60640   2.73540   0.41010    68    56    53    67
 C     0.72940   3.21990  -2.63080    69    65    70    75
 C     0.66210   3.98880  -1.41820    70    72    71    69
 C     1.73840   3.98350  -0.47220    71    67    62    70
 C    -0.61510   4.22230  -0.89480    72    78    63    70
 C     0.71960   0.89560  -4.21160    73    64    81    74
 C    -0.50730   1.50320  -4.00370    74    73    83    75
 C    -0.52590   2.71040  -3.22220    75    77    74    69
 C    -2.83100   2.09440  -2.64970    76    82    96    77
 C    -1.76850   3.00720  -2.58430    77    78    76    75
 C    -1.77880   3.76610  -1.43750    78    72    77    95
 C    -1.41430  -0.76880  -4.11840    79    80    89    83
 C    -0.17730  -1.27470  -4.29240    80    81    79    42
 C     0.87040  -0.46870  -4.36800    81    80    38    73
 C    -2.73980   0.90820  -3.30460    82    83    76    87
 C    -1.62360   0.60280  -4.01430    83    82    79    74
 C    -3.89780  -1.90860   0.93100    84    44    92    85
 C    -4.14720  -1.46530  -0.36440    85    84    94    86
 C    -3.47550  -2.15940  -1.43340    86    88    85    46
 C    -3.53080  -0.03860  -2.64240    87    93    88    82
 C    -3.21280  -1.39370  -2.61210    88    89    87    86
 C    -2.15680  -1.71540  -3.42300    89    49    88    79
 C    -4.43110   0.72080   0.69170    90    91    98    94
 C    -4.07510   0.22500   1.89980    91    92    90    11
 C    -3.85670  -1.06090   2.02650    92    91    27    84
 C    -4.14560   0.59500  -1.61290    93    87    94    96
 C    -4.47820  -0.07910  -0.46270    94    93    90    85
 C    -2.71730   3.59690  -0.41970    95    97    18    78
 C    -3.75390   1.92660  -1.62670    96    97    76    93
 C    -3.70420   2.66830  -0.48380    97    95    96    98
 C    -4.03930   2.03640   0.67880    98    97    90    16
