    98
C98-C2-233                                                                      
 C    -2.25350  -4.01050  -0.20230     1     2     7    60
 C    -3.32230  -3.29900   0.23530     2     1     3     4
 C    -3.93480  -2.46980  -0.66140     3     2    10    59
 C    -3.24730  -2.85600   1.54570     4     8     5     2
 C    -2.12400  -3.08840   2.31760     5     6    23     4
 C    -1.07270  -3.85700   1.91210     6     5     7    19
 C    -1.20770  -4.36300   0.61170     7    66     1     6
 C    -3.81280  -1.67430   1.92430     8     4     9    12
 C    -4.54480  -0.90580   1.05520     9    11     8    10
 C    -4.57490  -1.32280  -0.26780    10     3    27     9
 C    -4.49920   0.43970   1.28110    11     9    25    17
 C    -2.98370  -1.12140   2.89770    12    23    16     8
 C     0.70270   0.31910   3.81070    13    14    33    24
 C    -0.58510  -0.16660   3.82170    14    13    22    15
 C    -1.64180   0.78610   3.54710    15    16    14    35
 C    -2.87710   0.24640   3.08620    16    12    17    15
 C    -3.71160   1.00420   2.27840    17    37    16    11
 C     1.27880  -3.94860   1.60220    18    93    65    19
 C     0.21650  -3.55200   2.41120    19    18     6    21
 C     1.75690  -1.80860   3.23910    20    24    95    21
 C     0.44410  -2.40270   3.25070    21    20    19    22
 C    -0.70180  -1.57740   3.58160    22    23    14    21
 C    -1.94340  -1.99000   3.12980    23    12     5    22
 C     1.82190  -0.45870   3.56050    24    98    13    20
 C    -4.56840   1.34350   0.24440    25    29    11    26
 C    -4.53890   0.92660  -1.08080    26    27    28    25
 C    -4.50420  -0.42050  -1.30030    27    26    10    41
 C    -3.80070   1.69930  -1.93800    28    32    26    39
 C    -3.92460   2.48520   0.64890    29    31    25    37
 C    -2.24820   4.02070   0.20640    30    31    53    38
 C    -3.31190   3.31630  -0.25120    31    30    29    32
 C    -3.23390   2.88020  -1.56070    32    28    52    31
 C     1.01680   1.63400   3.51950    33    87    13    34
 C     0.06750   2.58340   3.16630    34    33    91    35
 C    -1.31080   2.16500   3.19210    35    36    34    15
 C    -2.22450   2.88090   2.35260    36    37    38    35
 C    -3.38030   2.26870   1.91250    37    17    36    29
 C    -1.71920   3.84050   1.49100    38    92    36    30
 C    -2.98140   1.12970  -2.91140    39    45    40    28
 C    -2.87320  -0.23690  -3.10320    40    39    41    43
 C    -3.71400  -0.98990  -2.29350    41    59    40    27
 C    -0.57870   0.16210  -3.82250    42    44    49    43
 C    -1.64080  -0.78450  -3.55570    43    40    42    57
 C     0.70940  -0.32430  -3.80520    44    42    55    51
 C    -1.93040   1.99400  -3.13450    45    39    52    49
 C     1.29380   3.93270  -1.58450    46    70    86    47
 C     0.23440   3.54380  -2.39980    47    46    54    48
 C     0.46010   2.39620  -3.24070    48    50    47    49
 C    -0.68500   1.57540  -3.58080    49    45    42    48
 C     1.76920   1.79590  -3.22200    50    51    71    48
 C     1.83020   0.44830  -3.54660    51    74    44    50
 C    -2.10880   3.09710  -2.32570    52    54    32    45
 C    -1.19160   4.35910  -0.60580    53    84    30    54
 C    -1.05440   3.85520  -1.90860    54    52    53    47
 C     1.01330  -1.64180  -3.51560    55    67    44    56
 C     0.06190  -2.58640  -3.16220    56    55    62    57
 C    -1.31470  -2.16360  -3.19550    57    58    56    43
 C    -2.23190  -2.87370  -2.35690    58    59    60    57
 C    -3.38720  -2.25610  -1.92310    59    41    58     3
 C    -1.72890  -3.83030  -1.48960    60    63    58     1
 C     1.89040  -3.62080  -1.82150    61    69    64    62
 C     0.54020  -3.62380  -2.29460    62    63    61    56
 C    -0.41640  -4.18040  -1.45820    63    60    66    62
 C     2.08980  -4.04960  -0.48580    64    65    80    61
 C     1.07790  -4.43460   0.31730    65    66    64    18
 C    -0.13500  -4.56880  -0.16950    66    65     7    63
 C     2.32830  -1.68100  -3.10250    67    69    55    74
 C     3.84090  -2.22430  -1.43430    68    75    79    69
 C     2.80930  -2.65490  -2.25520    69    67    68    61
 C     2.52120   3.33910  -1.58240    70    46    81    71
 C     2.84920   2.26330  -2.40000    71    70    72    50
 C     3.87920   1.38270  -1.93000    72    73    83    71
 C     3.87460   0.03260  -2.31990    73    74    75    72
 C     2.83850  -0.38970  -3.12840    74    51    73    67
 C     4.35830  -0.95030  -1.45920    75    77    68    73
 C     4.76420   0.61700   0.20820    76    77    83    96
 C     4.76150  -0.64840  -0.18230    77    76    78    75
 C     4.39650  -1.65210   0.66930    78    79    77    94
 C     3.91910  -2.64400  -0.12650    79    80    78    68
 C     3.02810  -3.50140   0.33670    80    79    64    93
 C     3.04950   3.48940  -0.30930    81    82    85    70
 C     3.93320   2.62180   0.14770    82    81    83    88
 C     4.39800   1.62930  -0.63880    83    82    76    72
 C    -0.11970   4.55880   0.17910    84    86    53    92
 C     2.10830   4.04400   0.50430    85    86    81    90
 C     1.09860   4.41800  -0.29990    86    84    85    46
 C     2.33400   1.67140   3.11780    87    33    89    98
 C     3.84790   2.20780   1.45580    88    82    96    89
 C     2.81480   2.65010   2.27520    89    87    88    90
 C     1.90320   3.61900   1.83840    90    89    85    91
 C     0.55130   3.62460   2.30550    91    92    90    34
 C    -0.40530   4.18420   1.47310    92    38    84    91
 C     2.50770  -3.35930   1.60860    93    18    80    95
 C     3.87260  -1.40860   1.96030    94    97    78    95
 C     2.83990  -2.28550   2.42510    95    93    94    20
 C     4.35960   0.92850   1.48820    96    76    88    97
 C     3.86830  -0.05570   2.34560    97    98    96    94
 C     2.83570   0.37680   3.14750    98    97    24    87
