    98
C98-C2-89                                                                       
 C    -4.19960  -1.95020  -0.50840     1     6     2    62
 C    -4.48770  -1.24980   0.63800     2     1     3     9
 C    -4.84760   0.08940   0.40920     3     4    61     2
 C    -4.59430   1.04130   1.33890     4     5     3    18
 C    -3.96020   0.70710   2.48170     5     4    19    10
 C    -3.33530  -3.00650  -0.50320     6     1    67     7
 C    -2.63060  -3.44200   0.62470     7     6    14     8
 C    -2.81360  -2.68380   1.84190     8     9     7    12
 C    -3.76970  -1.61290   1.82950     9    10     8     2
 C    -3.53040  -0.56900   2.72570    10     5    25     9
 C    -0.56290  -3.35020   2.44680    11    26    13    12
 C    -1.68730  -2.60910   2.75920    12    11    24     8
 C    -0.42270  -4.07470   1.27920    13    14    98    11
 C    -1.40890  -4.09500   0.34830    14    13    15     7
 C    -0.91130  -4.14880  -0.95820    15    66    96    14
 C    -3.34910   3.02430   1.23040    16    18    17    33
 C    -2.77270   2.72320   2.41600    17    19    16    21
 C    -4.27490   2.20820   0.69250    18    16    44     4
 C    -3.06470   1.56390   3.03380    19    17    20     5
 C    -2.09130   0.86880   3.66300    20    19    23    25
 C    -1.50620   3.19880   2.42850    21    17    35    22
 C    -0.48600   2.60890   3.15780    22    21    37    23
 C    -0.79920   1.35080   3.81350    23    20    29    22
 C    -1.42470  -1.45020   3.56820    24    25    12    28
 C    -2.38810  -0.47830   3.51080    25    24    20    10
 C     0.70100  -3.02510   2.88270    26    11    91    27
 C     1.01740  -1.88410   3.61190    27    26    94    28
 C    -0.08370  -1.03560   3.93190    28    27    24    29
 C     0.19700   0.38690   4.02890    29    30    23    28
 C     1.48860   0.81850   3.77450    30    95    29    36
 C     1.28260   3.81520  -1.25100    31    32    49    41
 C     0.03330   4.01460  -0.72800    32    31    39    42
 C    -2.42250   3.65720   0.44600    33    16    35    34
 C    -2.37510   3.49490  -0.94010    34    33    42    43
 C    -1.28400   3.83420   1.21800    35    39    21    33
 C     1.79280   2.03630   3.16360    36    56    37    30
 C     0.81950   2.91910   2.73380    37    36    22    38
 C     1.10200   3.66500   1.52140    38    40    39    37
 C    -0.03260   4.02420   0.70410    39    35    32    38
 C     2.37750   3.50280   0.90660    40    41    38    57
 C     2.42640   3.65140  -0.48130    41    55    31    40
 C    -1.09830   3.64950  -1.55290    42    34    32    45
 C    -3.37360   2.63140  -1.48090    43    47    44    34
 C    -4.30730   2.00280  -0.64110    44    18    61    43
 C    -0.81810   2.89590  -2.76110    45    46    50    42
 C    -1.79040   2.00380  -3.18040    46    47    45    69
 C    -3.01830   1.88750  -2.58160    47    46    43    59
 C     2.77460   2.71360  -2.42740    48    51    55    49
 C     1.50500   3.18180  -2.46350    49    48    50    31
 C     0.48480   2.58820  -3.18430    50    49    45    53
 C     3.06370   1.54800  -3.04300    51    48    52    84
 C     2.08860   0.84840  -3.66620    52    51    53    70
 C     0.79690   1.32570  -3.82780    53    52    68    50
 C     4.29380   2.21320  -0.71420    54    55    58    83
 C     3.36760   3.02760  -1.25190    55    54    48    41
 C     3.02100   1.91730   2.56410    56    36    57    87
 C     3.38310   2.64770   1.45340    57    56    58    40
 C     4.31830   2.01280   0.62140    58    54    90    57
 C    -3.49100   0.61070  -2.81400    59    63    60    47
 C    -4.34680  -0.00810  -1.92760    60    61    62    59
 C    -4.74410   0.70010  -0.84170    61    60    44     3
 C    -4.12900  -1.34900  -1.77280    62    60    65     1
 C    -2.52830  -0.06500  -3.53280    63    69    64    59
 C    -2.32820  -1.41830  -3.43050    64    63    65    73
 C    -3.19490  -2.02860  -2.51350    65    67    62    64
 C    -1.58600  -3.59310  -1.97620    66    67    15    74
 C    -2.78730  -3.07720  -1.76990    67    66    65     6
 C    -0.19300   0.35570  -4.04060    68    69    53    72
 C    -1.48610   0.78510  -3.79100    69    63    68    46
 C     2.39040  -0.49550  -3.49770    70    71    52    75
 C     1.42450  -1.47110  -3.56290    71    70    78    72
 C     0.08350  -1.06510  -3.93350    72    73    71    68
 C    -1.01270  -1.91550  -3.60720    73    74    64    72
 C    -0.69510  -3.05340  -2.87520    74    79    66    73
 C     3.53890  -0.57360  -2.71790    75    84    70    76
 C     3.77170  -1.62270  -1.82380    76    75    77    86
 C     2.81880  -2.69220  -1.83730    77    76    81    78
 C     1.69050  -2.62930  -2.75150    78    79    71    77
 C     0.56820  -3.37340  -2.44220    79    74    96    78
 C     3.32750  -2.99210   0.51360    80    85    92    81
 C     2.63510  -3.44430  -0.61650    81    80    97    77
 C     4.85440   0.09270  -0.41920    82    83    90    86
 C     4.61040   1.04180  -1.35430    83    84    82    54
 C     3.97320   0.70540  -2.49100    84    83    51    75
 C     4.19310  -1.93780   0.51700    85    80    86    88
 C     4.48750  -1.24810  -0.63230    86    85    82    76
 C     3.49040   0.63650   2.80340    87    95    89    56
 C     4.12950  -1.33420   1.77750    88    89    93    85
 C     4.34710   0.00910   1.92030    89    90    88    87
 C     4.74860   0.70990   0.82980    90    89    58    82
 C     1.58010  -3.57150   1.97560    91    92    98    26
 C     2.78410  -3.04840   1.78070    92    91    93    80
 C     3.19860  -2.00580   2.53020    93    92    88    94
 C     2.33230  -1.38680   3.43580    94    95    93    27
 C     2.52870  -0.03530   3.52860    95    30    94    87
 C     0.43580  -4.09110  -1.27090    96    97    79    15
 C     1.41800  -4.10420  -0.33840    97    96    98    81
 C     0.91770  -4.14850   0.96230    98    91    13    97
