    98
C98-C1-204                                                                      
 C     4.02940   2.37010  -0.69500     1     9     2     4
 C     4.66590   1.14100  -0.64380     2     3     1     7
 C     4.78110   0.62800   0.63640     3    61     2     6
 C     3.47090   3.01040   0.40670     4    19     5     1
 C     3.49030   2.44440   1.66270     5     4     6    16
 C     4.20750   1.24980   1.73620     6    67     3     5
 C     4.42480   0.23940  -1.71550     7     8    11     2
 C     4.36520  -1.10880  -1.43620     8    60     7    23
 C     3.24740   2.73170  -1.75350     9    10    12     1
 C     2.99600   1.85140  -2.73950    10     9    11    37
 C     3.54940   0.62120  -2.71780    11    10     7    21
 C     2.27900   3.59160  -1.38190    12     9    13    19
 C     1.05950   3.65470  -2.02820    13    14    12    36
 C     0.05220   4.13160  -1.26150    14    38    13    20
 C     2.03220   1.58100   3.33440    15    93    66    16
 C     2.33830   2.65170   2.49050    16    15    17     5
 C     1.22780   3.46530   2.09820    17    18    16    95
 C     1.33160   4.05780   0.80020    18    20    19    17
 C     2.41500   3.77520  -0.00420    19     4    18    12
 C     0.17350   4.33690   0.11370    20    98    18    14
 C     2.63220  -0.22360  -3.32670    21    22    27    11
 C     2.55240  -1.56070  -3.02760    22    21    23    24
 C     3.48470  -1.97630  -2.06990    23    43     8    22
 C     1.29970  -2.20750  -3.18110    24    22    25    30
 C     1.11010  -3.35950  -2.33740    25    26    42    24
 C    -0.18950  -3.73730  -2.09580    26    35    25    44
 C     1.52320   0.51210  -3.70520    27    37    21    29
 C    -0.85890   0.89600  -3.72100    28    32    29    40
 C     0.25210  -0.02430  -3.87010    29    27    30    28
 C     0.12600  -1.45000  -3.65400    30    34    29    24
 C    -3.10800   1.15040  -2.83150    31    41    85    32
 C    -2.14920   0.33590  -3.47450    32    31    33    28
 C    -2.31150  -1.07060  -3.31970    33    34    56    32
 C    -1.18270  -1.93550  -3.37930    34    35    30    33
 C    -1.27600  -3.10620  -2.61710    35    26    52    34
 C     0.74580   2.70270  -3.05000    36    37    40    13
 C     1.76000   1.81790  -3.33790    37    10    36    27
 C    -1.23850   3.86010  -1.55150    38    14    89    39
 C    -1.61300   2.97430  -2.56370    39    41    38    40
 C    -0.59620   2.27960  -3.28160    40    39    36    28
 C    -2.83860   2.40240  -2.36410    41    31    39    92
 C     2.04960  -3.69000  -1.31560    42    43    46    25
 C     3.20010  -2.98860  -1.19790    43    42    23    59
 C    -0.60540  -4.30490  -0.90760    44    45    47    26
 C     0.25350  -4.41460   0.08740    45    44    46    48
 C     1.55360  -4.15430  -0.09310    46    45    57    42
 C    -1.89740  -4.03030  -0.66680    47    44    52    50
 C    -0.14290  -4.09300   1.36220    48    68    45    49
 C    -1.44010  -3.70850   1.66760    49    48    70    50
 C    -2.41650  -3.75190   0.61120    50    54    47    49
 C    -3.37830  -2.59360  -1.72820    51    52    56    53
 C    -2.33600  -3.38550  -1.78680    52    51    47    35
 C    -4.05230  -2.39490  -0.55140    53    51    81    54
 C    -3.54180  -2.91940   0.64260    54    55    50    53
 C    -3.68100  -2.07650   1.71650    55    54    83    69
 C    -3.41000  -1.48000  -2.51130    56    86    51    33
 C     2.05900  -3.75480   1.12970    57    58    46    68
 C     3.19400  -3.00950   1.23510    58    57    59    63
 C     3.81330  -2.70240   0.01540    59    60    43    58
 C     4.55210  -1.57780  -0.15890    60    61    59     8
 C     4.72620  -0.72720   0.86750    61    60    64     3
 C     2.12640  -1.91620   3.14560    62    65    72    63
 C     3.27950  -2.08910   2.29510    63    64    58    62
 C     4.09990  -0.97170   2.06530    64    67    61    63
 C     1.93530  -0.62960   3.64220    65    66    74    62
 C     2.75890   0.42060   3.35030    66    67    65    15
 C     3.83000   0.25440   2.58650    67    66    64     6
 C     0.98430  -3.64650   2.00370    68    48    72    57
 C    -2.69630  -1.98270   2.69910    69    76    70    55
 C    -1.54290  -2.75610   2.72210    70    69    49    71
 C    -0.37320  -2.19550   3.36380    71    72    70    73
 C     0.93810  -2.68940   3.00790    72    68    62    71
 C    -0.46730  -0.83540   3.85220    73    74    77    71
 C     0.70190  -0.10970   3.93710    74    65    73    93
 C    -3.76010  -0.05820   2.55600    75    78    83    76
 C    -2.74410  -0.70350   3.20610    76    75    69    77
 C    -1.63700  -0.05090   3.73570    77    76    73    80
 C    -3.70820   1.26880   2.39490    78    75    87    79
 C    -2.63500   1.96680   2.88170    79    78    96    80
 C    -1.57080   1.38420   3.55920    80    79    94    77
 C    -4.64870  -1.15830  -0.65110    81    53    86    82
 C    -4.85380  -0.32040   0.43230    82    81    83    88
 C    -4.33670  -0.85770   1.61560    83    75    55    82
 C    -4.42240   1.53240  -1.02980    84    85    92    88
 C    -4.13300   0.66350  -2.04640    85    86    84    31
 C    -4.26730  -0.63980  -1.87550    86    85    56    81
 C    -4.21530   1.84570   1.26730    87    78    90    88
 C    -4.76640   1.07730   0.24740    88    87    84    82
 C    -1.96410   4.00660  -0.38060    89    91    98    38
 C    -3.43590   2.96210   1.06530    90    91    87    96
 C    -3.16460   3.39880  -0.20930    91    89    92    90
 C    -3.63700   2.63660  -1.24340    92    91    84    41
 C     0.76690   1.27710   3.75490    93    15    94    74
 C    -0.32530   2.05890   3.47750    94    93    80    95
 C    -0.10810   3.21630   2.63290    95    97    94    17
 C    -2.47370   3.06200   2.07230    96    79    97    90
 C    -1.24470   3.67130   1.90780    97    96    98    95
 C    -1.05830   4.20650   0.64750    98    20    97    89
