    40
C40-C2-35                                                                       
 C     1.54290  -2.02170  -1.11660     1     2    22     5
 C     2.33300  -0.91400  -1.30380     2     1     3    10
 C     1.76940   0.18850  -1.94280     3     4     2     8
 C     2.00550   1.45530  -1.43790     4    16    11     3
 C     0.23010  -2.14730  -1.55880     5     1    29     7
 C    -1.76780  -0.81640  -1.77870     6    38     9     7
 C    -0.40670  -1.02570  -2.16350     7     5     6     8
 C     0.39640   0.15050  -2.33320     8    35     3     7
 C    -2.40540  -1.58330  -0.79170     9    28    39     6
 C     2.98360  -0.73280  -0.06750    10    12    21     2
 C     2.63790   1.61700  -0.23230    11    12     4    14
 C     3.03040   0.52090   0.46610    12    11    10    18
 C     0.64480   2.81210  -0.25190    13    15    14    16
 C     1.70880   2.31950   0.51490    14    11    17    13
 C    -0.65550   2.81230   0.22720    15    13    37    20
 C     0.85600   2.16360  -1.47770    16     4    35    13
 C     1.46710   1.56590   1.66980    17    18    19    14
 C     2.27490   0.45670   1.61390    18    17    12    24
 C     0.15180   1.41860   2.05370    19    20    17    25
 C    -0.85080   2.12350   1.42720    20    33    19    15
 C     2.41850  -1.60480   0.83550    21    22    10    24
 C     1.66360  -2.50640   0.16850    22    23    21     1
 C     0.42450  -2.86590   0.52820    23    22    29    27
 C     1.81330  -0.83720   1.84300    24    18    21    26
 C    -0.38000   0.12080   2.31270    25    19    30    26
 C     0.43800  -1.05940   2.17490    26    27    24    25
 C    -0.22950  -2.16710   1.56150    27    32    23    26
 C    -1.65150  -2.49850  -0.14100    28    29     9    32
 C    -0.42910  -2.86670  -0.54820    29    28    23     5
 C    -1.75440   0.16110   1.91260    30    33    31    25
 C    -2.34590  -0.94680   1.30120    31    32    30    39
 C    -1.55310  -2.05160   1.15290    32    31    28    27
 C    -2.00440   1.42910   1.39340    33    20    34    30
 C    -2.66610   1.64420   0.20980    34    40    33    37
 C    -0.14850   1.44460  -2.09640    35    36    16     8
 C    -1.45120   1.59860  -1.66620    36    38    35    37
 C    -1.73480   2.36250  -0.53650    37    36    34    15
 C    -2.24060   0.47480  -1.55120    38    36    40     6
 C    -3.03640  -0.72160   0.08280    39    40     9    31
 C    -3.08030   0.52890  -0.45020    40    39    34    38
