    40
C40-C2-9                                                                        
 C    -2.78290   1.04190   0.95030     1    25     4     2
 C    -2.70700  -0.29990   1.36720     2     3    11     1
 C    -1.55670  -0.71010   2.04400     3     6     2    12
 C    -1.66220   1.85860   1.11160     4     5     1    28
 C    -0.59360   1.52320   1.92340     5     6     4     8
 C    -0.61120   0.22820   2.40000     6    17     3     5
 C     1.07470   2.33640   0.38730     7    39     8    27
 C     0.75770   1.77480   1.63470     8     7     5    36
 C    -2.20670  -1.89370  -0.20780     9    10    11    19
 C    -1.06490  -2.32930   0.40710    10     9    14    12
 C    -3.15790  -1.01010   0.24880    11     9    21     2
 C    -0.73720  -1.80600   1.66640    12    10    13     3
 C     0.61950  -1.56350   1.96560    13    17    16    12
 C    -0.01860  -2.35800  -0.52050    14    15    10    18
 C     1.30370  -2.24220  -0.16790    15    20    14    16
 C     1.69240  -1.89580   1.14500    16    13    38    15
 C     0.64230  -0.25380   2.41870    17     6    36    13
 C    -0.50660  -1.65070  -1.65320    18    19    14    24
 C    -1.85130  -1.46700  -1.46720    19    22    18     9
 C     2.19410  -1.62460  -1.01120    20    35    15    23
 C    -3.48280  -0.15940  -0.78440    21    25    22    11
 C    -2.56730  -0.35870  -1.79180    22    19    21    32
 C     1.70980  -0.72320  -1.96250    23    33    20    24
 C     0.31740  -0.63860  -2.22950    24    23    18    31
 C    -3.23890   1.08410  -0.33010    25    21    26     1
 C    -2.23210   1.65290  -1.03930    26    25    28    32
 C     0.00890   2.37180  -0.53400    27    28     7    30
 C    -1.31820   2.25670  -0.19930    28    27    26     4
 C     1.83210   1.47770  -1.47130    29    33    30    39
 C     0.48860   1.66280  -1.66860    30    29    27    31
 C    -0.35370   0.66560  -2.24990    31    32    30    24
 C    -1.74770   0.75210  -2.00110    32    22    26    31
 C     2.54930   0.36510  -1.76250    33    29    34    23
 C     3.46580   0.16020  -0.75650    34    35    40    33
 C     3.22510  -1.08290  -0.29780    35    34    38    20
 C     1.58130   0.68800   2.04440    36    17    37     8
 C     2.73790   0.28120   1.36810    37    36    38    40
 C     2.81500  -1.07230   0.99720    38    35    16    37
 C     2.22220   1.92020  -0.22470    39     7    40    29
 C     3.15820   1.04010   0.25530    40    39    34    37
