    40
C40-D2-3                                                                        
 C     3.90040   0.23290  -0.64760     1     5    22     2
 C     2.97280  -0.56520  -1.30380     2    31     1    10
 C    -0.99480  -1.92200  -0.91130     3    11     4    36
 C     0.30870  -1.62800  -1.25810     4     3    30     9
 C     3.22420   1.41500  -0.72150     5    12     1     6
 C     2.12360   1.41770  -1.54300     6     5    20    10
 C    -1.88110  -0.04940  -1.83750     7    11    21     8
 C    -0.56650   0.46220  -1.96340     8     7     9    19
 C     0.58400  -0.40910  -1.98410     9    10     8     4
 C     1.90250   0.09100  -1.90060    10     2     6     9
 C    -2.11680  -1.37290  -1.48370    11    40     3     7
 C     2.63350   1.63120   0.47450    12     5    13    14
 C     2.97310   0.57410   1.27140    13    12    28    22
 C     1.33330   2.04700   0.37880    14    12    15    20
 C     0.31810   1.66910   1.27070    15    16    14    27
 C    -0.99560   1.95350   0.94630    16    29    15    18
 C    -2.63690   1.63790  -0.46810    17    37    21    18
 C    -1.32860   2.06970  -0.43180    18    17    19    16
 C    -0.30570   1.73870  -1.33040    19    20    18     8
 C     1.00590   2.01630  -1.00340    20     6    19    14
 C    -2.98720   0.59240  -1.27690    21    17     7    39
 C     3.90530  -0.25710   0.64540    22    23     1    13
 C     3.23740  -1.42960   0.76060    23    22    24    31
 C     2.13180  -1.45370   1.56460    24    23    33    28
 C    -1.87480   0.05700   1.81950    25    29    34    26
 C    -0.56320  -0.46260   1.93740    26    25    27    32
 C     0.58590   0.41240   1.93900    27    28    26    15
 C     1.89880  -0.10220   1.85060    28    13    24    27
 C    -2.11640   1.38650   1.49690    29    37    16    25
 C     1.31870  -1.98850  -0.35890    30    31     4    33
 C     2.61630  -1.57420  -0.45480    31    30     2    23
 C    -0.31080  -1.76310   1.34610    32    33    36    26
 C     1.00480  -2.04120   1.02410    33    24    32    30
 C    -2.97770  -0.59250   1.26270    34    35    38    25
 C    -2.65400  -1.66500   0.47540    35    34    40    36
 C    -1.34610  -2.09130   0.45100    36    35    32     3
 C    -3.24430   1.41870   0.73510    37    38    29    17
 C    -3.90610   0.23600   0.63150    38    37    39    34
 C    -3.91500  -0.25530  -0.66290    39    40    38    21
 C    -3.25900  -1.43500  -0.73600    40    39    11    35
