    40
C40-Cs-24                                                                       
 C     2.29760  -1.13700  -1.35750     1     2    23     6
 C     3.00960  -0.00490  -1.09840     2     3     1     7
 C     2.29110   1.12230  -1.34460     3     2    11     4
 C     1.05700   1.19240  -1.95970     4     3    21     5
 C     0.39630  -0.00250  -2.42360     5    40     4     6
 C     1.06100  -1.20110  -1.97040     6     1    28     5
 C     3.39660   0.01230   0.21420     7     8     2    25
 C     2.85400   1.11310   0.80280     8     7    11     9
 C     1.96930   0.70410   1.79250     9     8    10    16
 C     0.75490   1.38450   1.98780    10     9    17    13
 C     2.25700   1.87160  -0.19040    11    12     3     8
 C     1.04300   2.48610  -0.09670    12    11    13    21
 C     0.32120   2.40800   1.10090    13    20    12    10
 C     0.75640  -1.37900   1.98120    14    16    15    26
 C    -0.40560  -0.68920   2.38780    15    17    33    14
 C     1.97550  -0.71300   1.77730    16    25    14     9
 C    -0.41170   0.69960   2.37500    17    18    15    10
 C    -1.51400   1.33260   1.82470    18    20    17    31
 C    -1.78640   2.31480  -0.08350    19    20    36    22
 C    -1.04530   2.35830   1.05170    20    19    18    13
 C     0.30410   2.18370  -1.27910    21    22     4    12
 C    -1.08190   2.12150  -1.27060    22    38    21    19
 C     2.27130  -1.88200  -0.20220    23    24    25     1
 C     1.04820  -2.49180  -0.11010    24    23    26    28
 C     2.85830  -1.11790   0.77490    25     7    23    16
 C     0.32540  -2.39720   1.08670    26    27    24    14
 C    -1.03640  -2.32870   1.06050    27    33    30    26
 C     0.30600  -2.19180  -1.29110    28    29     6    24
 C    -1.08150  -2.12570  -1.27960    29    39    28    30
 C    -1.77230  -2.29580  -0.08360    30    27    34    29
 C    -2.61750   0.69780   1.23980    31    32    18    36
 C    -2.60770  -0.70300   1.25130    32    33    31    34
 C    -1.51400  -1.32920   1.84640    33    27    15    32
 C    -2.78730  -1.37170   0.02080    34    35    30    32
 C    -2.81660  -0.68130  -1.16410    35    37    34    39
 C    -2.79490   1.38190   0.01850    36    37    19    31
 C    -2.81190   0.68050  -1.16040    37    35    36    38
 C    -1.72290   1.08270  -1.90590    38    22    37    40
 C    -1.73390  -1.09360  -1.91810    39    29    35    40
 C    -1.01350  -0.00990  -2.40130    40    39    38     5
