    40
C40-C1-12                                                                       
 C     1.12650  -2.30130   0.74520     1     2     4    23
 C    -0.11970  -2.60740   0.27950     2     1     3    10
 C    -1.24590  -2.30060   1.01860     3     5     2    22
 C     2.19570  -2.05960  -0.09170     4    29     1     8
 C    -2.29090  -2.13210   0.20180     5     3     6    11
 C    -1.82410  -2.05090  -1.05790     6     5     7    10
 C    -2.36380  -0.91760  -1.56380     7     6    40    14
 C     1.81080  -1.49200  -1.32700     8    36     4     9
 C     0.46090  -1.48140  -1.77530     9    10     8    39
 C    -0.46440  -2.29850  -1.07030    10     6     9     2
 C    -3.03790  -1.04470   0.50690    11     5    14    12
 C    -2.32580  -0.43480   1.56170    12    13    11    22
 C    -2.14980   0.95220   1.52510    13    17    12    16
 C    -3.24360  -0.31830  -0.65590    14    15    11     7
 C    -2.98560   1.01380  -0.67280    15    14    16    35
 C    -2.57220   1.72710   0.42520    16    15    18    13
 C    -0.92100   1.46290   1.86350    17    19    13    20
 C    -1.51490   2.55450   0.10640    18    19    16    32
 C    -0.54750   2.50430   1.07130    19    17    18    27
 C     0.17710   0.71580   2.21740    20    17    21    24
 C     0.07720  -0.69730   2.24280    21    20    23    22
 C    -1.19090  -1.23310   1.90570    22     3    21    12
 C     1.25120  -1.34210   1.78070    23    26    21     1
 C     1.30920   1.38470   1.68360    24    25    20    27
 C     2.45390   0.66890   1.35070    25    26    24    31
 C     2.45400  -0.71220   1.49100    26    29    25    23
 C     0.80370   2.43580   0.86200    27    19    34    24
 C     3.52160  -0.28070  -0.34280    28    29    36    31
 C     3.16060  -1.27340   0.46490    29    28     4    26
 C     2.41190   1.67170  -0.71560    30    31    34    37
 C     3.17300   0.96040   0.17560    31    30    28    25
 C    -1.07670   2.17990  -1.15050    32    35    18    33
 C     0.27850   2.06010  -1.41610    33    32    38    34
 C     1.27560   2.40190  -0.46310    34    30    27    33
 C    -1.94500   1.20470  -1.57640    35    32    40    15
 C     2.65990  -0.39240  -1.41940    36    37    28     8
 C     2.05360   0.77560  -1.69510    37    36    38    30
 C     0.75730   0.91010  -2.08720    38    37    33    39
 C    -0.10180  -0.21770  -2.28130    39    40    38     9
 C    -1.49230   0.00540  -2.11360    40     7    35    39
