    40
C40-C2-36                                                                       
 C     2.51970  -1.56870  -0.00250     1     2    27    14
 C     1.59350  -2.46660  -0.39720     2     4     1     3
 C     1.04590  -1.99300  -1.57560     3    29     2    10
 C     0.56980  -2.86050   0.36540     4     2     5    12
 C    -0.59030  -2.87010  -0.36380     5     7     4    10
 C    -2.50440  -1.56870   0.00260     6     7    36    11
 C    -1.59010  -2.46950   0.42520     7     5     6    19
 C    -0.50810   0.08440  -2.43120     8    38    30     9
 C    -1.18730  -1.11150  -1.98090     9    10     8    11
 C    -0.33620  -2.17240  -1.55920    10     3     5     9
 C    -2.39390  -0.87100  -1.20760    11    40     6     9
 C     0.34290  -2.17500   1.57590    12    19     4    13
 C     1.20420  -1.11600   1.99350    13    12    14    17
 C     2.39160  -0.87370   1.20280    14    15     1    13
 C     2.78300   0.42380   0.88960    15    16    26    14
 C     2.10820   1.47840   1.37370    16    15    18    23
 C     0.50230   0.06890   2.43980    17    18    21    13
 C     1.01580   1.32220   2.13870    18    16    25    17
 C    -1.04070  -2.00550   1.59930    19    20     7    12
 C    -1.69310  -0.85230   1.96210    20    19    36    21
 C    -0.91340   0.22480   2.36910    21    20    17    33
 C     0.44830   2.76280   0.54420    22    24    25    23
 C     1.74800   2.29270   0.32060    23    16    22    28
 C    -0.43800   2.76070  -0.52440    24    22    32    35
 C     0.01880   2.14210   1.72170    25    18    33    22
 C     2.90720   0.57110  -0.47500    26    27    15    28
 C     2.69680  -0.64910  -1.02360    27    26     1    29
 C     2.18670   1.69720  -0.86870    28    26    23    31
 C     1.69590  -0.84570  -1.96210    29     3    27    30
 C     0.91330   0.23480  -2.35230    30    29    31     8
 C     1.19720   1.53870  -1.85050    31    32    28    30
 C    -0.03220   2.13140  -1.70060    32    38    31    24
 C    -1.20510   1.53280   1.87140    33    25    34    21
 C    -2.15610   1.68980   0.85130    34    37    35    33
 C    -1.74360   2.29740  -0.33920    35    39    24    34
 C    -2.67510  -0.63830   1.00820    36    37     6    20
 C    -2.87160   0.57000   0.44070    37    36    40    34
 C    -1.04400   1.33820  -2.14600    38    39    32     8
 C    -2.15620   1.50990  -1.39760    39    40    38    35
 C    -2.81150   0.43730  -0.93380    40    39    37    11
