    40
C40-Cs-14                                                                       
 C     2.06560   1.65650   1.14410     1     2    23     4
 C     2.79720   1.56680  -0.00510     2     3     1     8
 C     2.06850   1.66630  -1.14630     3     2    13     7
 C     0.75290   2.08590   1.19350     4     1    28     6
 C    -1.34320   2.33380   0.01400     5     6    32    40
 C     0.05250   2.47460   0.00220     6     5     7     4
 C     0.75340   2.09040  -1.18760     7     3    38     6
 C     3.37230   0.31510  -0.00800     8     9    25     2
 C     2.95910  -0.34680  -1.11970     9     8    13    10
 C     2.33370  -1.51790  -0.70820    10     9    11    16
 C     1.16270  -1.93040  -1.37400    11    12    10    15
 C     0.19360  -2.57570  -0.65910    12    17    22    11
 C     2.19150   0.51100  -1.87720    13    14     3     9
 C     0.96650   0.20630  -2.41090    14    13    15    38
 C     0.44440  -1.08150  -2.26800    15    14    35    11
 C     2.34260  -1.53850   0.72940    16    25    18    10
 C     0.18230  -2.60470   0.69520    17    12    20    18
 C     1.17190  -1.96010   1.38860    18    17    16    26
 C    -1.90190  -2.06170   0.01600    19    21    20    22
 C    -1.05980  -2.24960   1.10700    20    17    27    19
 C    -2.84130  -1.04690  -0.01440    21    19    37    31
 C    -1.04620  -2.20410  -1.07830    22    12    35    19
 C     2.19670   0.49940   1.86040    23     1    25    24
 C     0.96630   0.19740   2.39560    24    23    26    28
 C     2.96390  -0.35440   1.11460    25    23     8    16
 C     0.44840  -1.09490   2.26360    26    24    27    18
 C    -0.93830  -1.28850   2.08890    27    20    30    26
 C     0.07340   1.25410   2.11480    28    29    24     4
 C    -1.29200   1.07720   1.99840    29    28    32    30
 C    -1.84010  -0.22900   2.02230    30    27    31    29
 C    -2.89890  -0.18310   1.10500    31    33    30    21
 C    -2.05570   1.79330   1.09650    32    33    29     5
 C    -3.12370   1.07970   0.65900    33    34    32    31
 C    -3.12440   1.05530  -0.67370    34    33    37    40
 C    -0.94230  -1.26940  -2.09090    35    22    36    15
 C    -1.86550  -0.22520  -2.05140    36    35    37    39
 C    -2.93210  -0.20640  -1.14590    37    34    36    21
 C     0.07290   1.25760  -2.11250    38    39    14     7
 C    -1.29320   1.07350  -1.99670    39    40    38    36
 C    -2.03520   1.77640  -1.07720    40    34    39     5
