    40
C40-C1-10                                                                       
 C    -1.13690  -2.06130   1.14140     1     3     2    26
 C    -2.34030  -1.39180   1.19640     2    23     1     8
 C     0.00490  -1.67270   1.80800     3     1     5     6
 C     1.42150  -2.24440  -0.00560     4    16    25     5
 C     1.31560  -1.90840   1.36100     5    14     3     4
 C    -0.01610  -0.35810   2.34100     6    10     3     7
 C    -1.13800   0.48870   2.13950     7     6     8     9
 C    -2.35880  -0.05870   1.64470     8     2    19     7
 C    -0.73490   1.75720   1.60270     9    17    12     7
 C     1.29820   0.04670   2.25250    10    14     6    11
 C     1.66720   1.27300   1.74090    11    10    12    33
 C     0.61390   2.05430   1.30130    12    11     9    36
 C     3.13430  -0.30600   1.04300    13    14    15    33
 C     2.16430  -0.90630   1.79770    14    10    13     5
 C     3.33410  -0.67970  -0.26500    15    38    13    16
 C     2.39290  -1.58250  -0.74060    16    40     4    15
 C    -1.50340   2.23560   0.56010    17    18    37     9
 C    -2.62980   1.65070   0.12190    18    17    19    21
 C    -3.21660   0.57970   0.72190    19    18    20     8
 C    -3.56710  -0.32640  -0.25190    20    23    19    22
 C    -2.37290   1.34560  -1.19270    21    22    18    30
 C    -2.85480   0.09090  -1.37450    22    21    20    28
 C    -3.06270  -1.52100   0.04500    23    20    24     2
 C    -2.11950  -1.90250  -0.85470    24    23    26    28
 C     0.25000  -2.30830  -0.77230    25    26     4    27
 C    -1.00270  -2.40530  -0.22460    26    25    24     1
 C     0.45650  -1.43270  -1.87140    27    40    25    29
 C    -1.90690  -0.85390  -1.76650    28    22    24    29
 C    -0.58800  -0.51290  -2.19220    29    28    27    32
 C    -1.10410   1.75680  -1.54630    30    21    37    32
 C     1.24280   1.17200  -1.92680    31    39    32    35
 C    -0.15190   0.89550  -2.15020    32    30    31    29
 C     2.79870   1.04980   0.97280    33    34    11    13
 C     2.83090   1.48190  -0.34230    34    38    33    35
 C     1.67170   2.04280  -0.86320    35    36    34    31
 C     0.64800   2.49760  -0.04960    36    37    35    12
 C    -0.63690   2.48740  -0.45260    37    36    17    30
 C     3.20230   0.40750  -1.08970    38    39    34    15
 C     2.22380   0.18960  -2.00780    39    40    38    31
 C     1.76920  -1.06870  -1.84740    40    39    27    16
