    40
C40-C2-25                                                                       
 C     2.77050  -1.50590   0.43350     1    27     3     5
 C     0.98480  -1.54600   1.75220     2     3    30     9
 C     2.24930  -1.01240   1.57600     3     1     7     2
 C    -1.57710  -2.17470   0.86180     4    29     8    40
 C     3.19840  -0.48050  -0.34780     5     1     6    21
 C     3.15130   0.65020   0.44600     6    10     5     7
 C     2.47940   0.31790   1.61750     7     3    17     6
 C    -1.40420  -1.15190   1.79530     8    18     4     9
 C    -0.10480  -0.71460   2.18270     9     8     2    16
 C     2.54520   1.77490  -0.00040    10     6    19    11
 C     1.57680   2.17160   0.89270    11    13    10    17
 C    -0.78230   2.49630   0.73570    12    13    36    15
 C     0.48240   2.68430   0.23760    13    12    11    26
 C    -2.22110   1.03720   1.52950    14    18    37    15
 C    -0.95980   1.53850   1.77840    15    14    12    16
 C     0.14300   0.73950   2.22360    16    17    15     9
 C     1.44580   1.19360   1.88400    17     7    11    16
 C    -2.44050  -0.29320   1.52550    18    14     8    38
 C     1.92940   1.78080  -1.22720    19    26    10    20
 C     1.74440   0.60500  -1.94330    20    19    21    24
 C     2.37600  -0.56830  -1.49130    21    20     5    22
 C     1.58180  -1.73150  -1.39370    22    23    27    21
 C     0.25780  -1.75320  -1.81420    23    28    22    25
 C     0.37530   0.58970  -2.30900    24    25    31    20
 C    -0.37080  -0.58830  -2.29100    25    24    23    34
 C     0.71720   2.39150  -1.10090    26    19    31    13
 C     1.85790  -2.29880  -0.13830    27     1    30    22
 C    -0.71510  -2.40220  -1.08280    28    35    23    29
 C    -0.47490  -2.72480   0.24700    29    30     4    28
 C     0.78900  -2.53140   0.72730    30    29    27     2
 C    -0.25980   1.74820  -1.81640    31    26    32    24
 C    -1.56950   1.73000  -1.35170    32    31    36    33
 C    -2.36210   0.55720  -1.44330    33    34    32    39
 C    -1.72220  -0.61410  -1.89460    34    35    25    33
 C    -1.93420  -1.80110  -1.19950    35    28    40    34
 C    -1.88160   2.31590  -0.11900    36    37    32    12
 C    -2.82490   1.54830   0.43020    37    36    14    39
 C    -3.20460  -0.66990   0.42480    38    40    39    18
 C    -3.24110   0.49760  -0.32770    39    37    38    33
 C    -2.60660  -1.80370  -0.00540    40    38    35     4
