    40
C40-Cs-7                                                                        
 C    -1.68170   2.12430  -0.92770     1     2    26     4
 C    -2.37280   1.05860  -1.35450     2     1     3    21
 C    -1.71570  -0.01410  -1.89170     3     2    12     7
 C    -0.32610   2.21050  -1.08430     4     1    29     6
 C     1.79110   1.17180  -1.47590     5    18     6    10
 C     0.41940   1.21290  -1.77310     6     5     4     7
 C    -0.30110  -0.01330  -2.09140     7     3     8     6
 C     0.42550  -1.23730  -1.78770     8    19     9     7
 C    -0.32710  -2.22540  -1.09650     9    11    15     8
 C     2.41750   1.95800  -0.47430    10    40    28     5
 C    -1.68320  -2.13580  -0.93080    11    12    13     9
 C    -2.38900  -1.07240  -1.34540    12    11     3    20
 C    -2.08470  -2.43050   0.32820    13    16    11    23
 C     1.45700  -2.34370   0.42890    14    15    17    37
 C     0.17890  -2.71180   0.13270    15    14    16     9
 C    -0.90450  -2.52660   0.97750    16    13    15    33
 C     2.42230  -1.94460  -0.48680    17    38    14    19
 C     2.52380  -0.00250  -1.50320    18    19     5    39
 C     1.79760  -1.17500  -1.49550    19    18     8    17
 C    -3.30520  -0.68640  -0.36950    20    21    23    12
 C    -3.29280   0.68320  -0.37200    21    20    22     2
 C    -2.87420   1.41910   0.72930    22    26    21    25
 C    -2.89410  -1.41940   0.73970    23    13    20    24
 C    -2.07420  -0.69520   1.62820    24    25    23    33
 C    -2.05860   0.70340   1.62400    25    24    22    31
 C    -2.06030   2.43960   0.33000    26    27     1    22
 C    -0.89250   2.54080   0.98520    27    26    29    31
 C     1.45590   2.34370   0.45480    28    29    10    30
 C     0.19350   2.72560   0.13080    29    28    27     4
 C     1.56710   1.34810   1.44710    30    35    28    32
 C    -0.82840   1.38730   1.78220    31    27    32    25
 C     0.40070   0.71770   1.97100    32    31    30    34
 C    -0.83880  -1.38060   1.77730    33    16    34    24
 C     0.39960  -0.72830   1.96460    34    33    37    32
 C     2.72180   0.67590   1.12630    35    36    30    40
 C     2.71870  -0.67800   1.12640    36    35    37    38
 C     1.56780  -1.34700   1.43310    37    36    14    34
 C     3.39640  -1.12450   0.01110    38    39    17    36
 C     3.64510   0.02240  -0.68450    39    40    38    18
 C     3.40380   1.15110   0.02040    40    39    10    35
