    40
C40-C3v-20                                                                      
 C    -2.90840   1.17380  -0.68120     1     4    29     5
 C    -2.92440  -1.20680   0.65570     2     3    28    24
 C    -2.88470  -0.02830   1.37270     3    40     2     4
 C    -2.87560   1.17310   0.68720     4     1     8     3
 C    -1.76630   1.86400  -1.05260     5     6     1     9
 C    -1.08630   1.18290  -2.03650     6     7     5    20
 C     0.28200   1.22150  -2.07890     7     6    12    17
 C    -1.76210   1.86660   1.10170     8     4    37     9
 C    -1.04160   2.37700   0.02130     9     5     8    16
 C     1.01620  -1.98840  -1.15180    10    15    21    11
 C     0.34450  -1.18590  -2.12560    11    19    12    10
 C     1.03710   0.04970  -2.31530    12    13     7    11
 C     2.30350   0.25630  -1.81040    13    14    12    18
 C     3.06370  -0.63040  -1.10510    14    13    15    27
 C     2.27840  -1.67320  -0.68740    15    25    14    10
 C     0.36440   2.43370   0.01290    16     9    17    39
 C     1.04760   1.98550  -1.16610    17    18     7    16
 C     2.31630   1.44460  -1.10970    18    36    13    17
 C    -1.06160  -1.17330  -2.06210    19    23    20    11
 C    -1.79730   0.00680  -2.16390    20     6    29    19
 C     0.27140  -2.39650  -0.01960    21    22    10    26
 C    -1.09840  -2.33830  -0.01920    22    21    24    23
 C    -1.80300  -1.86000  -1.10670    23    22    28    19
 C    -1.78220  -1.87140   1.07680    24    22     2    34
 C     2.29700  -1.70160   0.67790    25    15    30    26
 C     1.02700  -2.02680   1.11890    26    25    21    33
 C     3.58430   0.01180  -0.00360    27    14    36    30
 C    -2.96060  -1.20170  -0.72770    28    29     2    23
 C    -2.95120  -0.00910  -1.40010    29    28    20     1
 C     3.05290  -0.64470   1.09980    30    31    25    27
 C     2.28620   0.25000   1.78380    31    30    35    32
 C     1.02200   0.00670   2.29470    32    31    38    33
 C     0.34030  -1.24530   2.10720    33    34    26    32
 C    -1.06640  -1.20820   2.07190    34    40    24    33
 C     2.31010   1.45930   1.13630    35    36    31    39
 C     3.08460   1.29950   0.01940    36    35    18    27
 C    -1.09420   1.16190   2.08020    37    38    40     8
 C     0.27820   1.20390   2.10630    38    37    39    32
 C     1.03580   1.98800   1.20580    39    35    38    16
 C    -1.78070  -0.02490   2.19680    40    37     3    34
