    40
C40-C2-18                                                                       
 C     2.19120  -1.59830  -1.03160     1     2     6    26
 C     1.11960  -2.39740  -1.14900     2     1    23     5
 C    -2.22810  -1.75760  -0.59220     3     4    11    15
 C    -1.05760  -2.43810  -0.76840     4     3    22     5
 C    -0.06660  -1.91080  -1.64010     5     2     4     9
 C     2.19960  -0.31210  -1.50790     6     1    13     8
 C     0.79840   1.64150  -1.73520     7    14    18     8
 C     1.00520   0.26110  -2.06180     8     7     6     9
 C    -0.18350  -0.57390  -2.14130     9    10     5     8
 C    -1.46280   0.01340  -1.96230    10    11    19     9
 C    -2.53270  -0.62750  -1.33790    11    17     3    10
 C     2.60630   1.62190  -0.21960    12    13    14    40
 C     2.93420   0.37190  -0.53980    13    12    25     6
 C     1.67870   2.34800  -0.89480    14    38    12     7
 C    -2.63830  -1.43040   0.69990    15    16    20     3
 C    -3.26200  -0.23190   0.59140    16    17    15    27
 C    -3.31690   0.26430  -0.66290    17    16    36    11
 C    -0.49210   2.13720  -1.46400    18    19     7    37
 C    -1.62480   1.37390  -1.61690    19    18    36    10
 C    -1.56940  -1.37120   1.59270    20    21    15    28
 C    -0.44450  -2.13610   1.44110    21    20    22    31
 C    -0.33690  -2.96670   0.30980    22    23     4    21
 C     0.96140  -3.05210   0.03830    23    22    24     2
 C     1.74870  -2.39760   0.93040    24    23    26    31
 C     3.00760  -0.41450   0.59140    25    26    13    32
 C     2.69380  -1.67440   0.26030    26    25    24     1
 C    -2.46050   0.62270   1.29150    27    16    33    28
 C    -1.40410  -0.01740   1.93370    28    27    20    29
 C    -0.12610   0.57370   2.11230    29    28    35    30
 C     1.06850  -0.26850   2.04920    30    31    32    29
 C     0.85600  -1.66090   1.73490    31    24    21    30
 C     2.28670   0.32470   1.54450    32    40    25    30
 C    -2.22020   1.76410   0.55590    33    34    27    36
 C    -1.03950   2.41790   0.75900    34    33    37    35
 C    -0.02010   1.92820   1.62970    35    39    34    29
 C    -2.70060   1.47200  -0.72260    36    17    33    19
 C    -0.34540   2.95790  -0.32610    37    38    34    18
 C     0.94310   3.05070  -0.00470    38    37    14    39
 C     1.18360   2.45650   1.20200    39    40    38    35
 C     2.24900   1.63760   1.11500    40    39    12    32
