    40
C40-C2v-8                                                                       
 C    -0.67400   2.44240   0.02180     1     2    22     3
 C     0.66910   2.44750   0.02440     2     1    32    12
 C    -1.15710   1.93740  -1.16490     3     4     1     7
 C    -2.37000   1.28830  -1.14800     4     3     6     5
 C    -3.14900   1.14230   0.01360     5    15     4    21
 C    -2.43530   0.04250  -1.76120     6    16     4    10
 C     0.00750   1.47880  -1.80390     7     3    12     9
 C     1.20810  -0.56190  -2.06250     8    13     9    38
 C    -0.00470   0.12010  -2.23940     9    10     8     7
 C    -1.21500  -0.55730  -2.06370    10     6     9    34
 C     2.36420   1.27750  -1.15370    11    12    13    14
 C     1.16630   1.94890  -1.16110    12    11     2     7
 C     2.43390   0.03380  -1.76030    13    39    11     8
 C     3.14280   1.13750   0.01970    14    40    11    31
 C    -3.77040  -0.09440  -0.02590    15    16    17     5
 C    -3.28230  -0.77690  -1.09280    16     6    15    18
 C    -3.23200  -0.71500   1.06050    17    20    15    19
 C    -2.46360  -1.79620  -0.69820    18    16    19    34
 C    -2.43160  -1.75470   0.66940    19    18    17    28
 C    -2.42800   0.08920   1.77890    20    17    21    23
 C    -2.39550   1.34250   1.20070    21    22    20     5
 C    -1.17830   1.99230   1.21710    22     1    21    26
 C    -1.21060  -0.53110   2.06180    23    20    25    28
 C     1.19560  -0.52720   2.04730    24    30    25    27
 C    -0.00720   0.16170   2.24660    25    24    23    26
 C     0.00260   1.53630   1.85310    26    22    32    25
 C     1.21340  -1.73620   1.29040    27    36    29    24
 C    -1.20940  -1.73880   1.30170    28    19    29    23
 C    -0.00180  -2.13560   0.70480    29    28    27    35
 C     2.41970   0.07250   1.75650    30    33    31    24
 C     2.38640   1.34110   1.20090    31    32    30    14
 C     1.18070   2.00530   1.22100    32     2    31    26
 C     3.23590  -0.74030   1.05320    33    30    36    40
 C    -1.22720  -1.78470  -1.33890    34    18    35    10
 C     0.00180  -2.17510  -0.76340    35    38    34    29
 C     2.43970  -1.76580   0.65400    36    33    37    27
 C     2.46260  -1.79960  -0.71710    37    36    38    39
 C     1.23040  -1.78940  -1.34190    38    37    35     8
 C     3.30000  -0.76280  -1.08410    39    40    13    37
 C     3.78070  -0.09310  -0.01250    40    39    33    14
