    40
C40-C2-23                                                                       
 C     3.21330  -0.95850  -0.49840     1    23     6     4
 C     1.00450  -0.93340   1.93670     2     3    30     7
 C     2.14730  -1.41610   1.30610     3     4    21     2
 C     3.13960  -0.60830   0.83180     4     9     3     1
 C     2.88910   1.19570  -0.35230     5    13     6     9
 C     2.88260   0.14800  -1.22490     6     5     1    12
 C     0.76550   0.47290   2.11220     7     2     8    19
 C     1.83300   1.30350   1.60050     8    17     9     7
 C     2.93230   0.72200   0.95160     9     4     5     8
 C     0.06730  -1.79970  -1.60940    10    11    27    24
 C     1.39610  -1.42370  -1.67500    11    10    23    12
 C     1.69680  -0.06970  -1.94280    12     6    11    15
 C     1.94690   2.13580  -0.43070    13     5    17    14
 C     0.89800   2.11330  -1.34860    14    35    13    15
 C     0.63930   0.89470  -2.06930    15    12    14    26
 C     0.14650   2.70130   0.66400    16    17    35    20
 C     1.41310   2.34890   0.81550    17    16    13     8
 C    -1.68770  -0.05990   1.87730    18    29    38    19
 C    -0.63060   0.91350   2.01480    19    18    20     7
 C    -0.92490   2.15880   1.33600    20    16    40    19
 C     1.76270  -2.36440   0.39120    21    22    23     3
 C     0.43390  -2.61420   0.55690    22    21    24    30
 C     2.33240  -1.95370  -0.78180    23     1    21    11
 C    -0.41870  -2.62100  -0.55290    24    25    22    10
 C    -1.73910  -2.34650  -0.39630    25    24    28    32
 C    -0.74980   0.45740  -2.13310    26    27    37    15
 C    -0.98950  -0.94690  -1.95840    27    28    10    26
 C    -2.13580  -1.41110  -1.32690    28    34    25    27
 C    -1.37460  -1.41770   1.64880    29    30    32    18
 C    -0.04970  -1.79130   1.60650    30    29     2    22
 C    -3.22030  -0.96130   0.49880    31    32    34    38
 C    -2.33240  -1.93620   0.77980    32    31    25    29
 C    -2.89980   0.71820  -0.88370    33    34    39    37
 C    -3.11070  -0.61240  -0.82040    34    33    28    31
 C    -0.15510   2.68700  -0.67390    35    36    16    14
 C    -1.42730   2.33710  -0.76840    36    35    37    40
 C    -1.79670   1.27030  -1.55090    37    36    33    26
 C    -2.91350   0.17370   1.20520    38    39    31    18
 C    -2.95960   1.27350   0.39500    39    40    38    33
 C    -2.02590   2.22190   0.47330    40    39    36    20
