    40
C40-Cs-13                                                                       
 C    -3.03420   0.00480  -1.37370     1    30     3     2
 C    -2.21010  -1.05500  -1.56590     2     1    12    33
 C    -2.20560   1.05730  -1.56480     3     1     4     6
 C    -2.24770   1.81760  -0.40510     4     3     5    16
 C    -1.03120   2.36690  -0.02570     5     4     9    17
 C    -0.98300   0.70200  -2.11750     6     3     8    12
 C     1.45060   0.71220  -1.98520     7    21     8    13
 C     0.20570   1.39780  -1.87600     8     6     7     9
 C     0.13400   2.36850  -0.82090     9    20     5     8
 C     0.12230  -2.36120  -0.82300    10    38    32    11
 C     0.21240  -1.39890  -1.89590    11    12    13    10
 C    -0.98250  -0.71650  -2.12880    12     2    11     6
 C     1.46910  -0.72710  -2.00680    13    40    11     7
 C    -2.41910   0.69170   1.57880    14    23    15    16
 C    -1.19100   1.13190   1.99850    15    14    17    28
 C    -3.09970   1.10670   0.45340    16    14    30     4
 C    -0.54190   2.11970   1.28620    17    18    15     5
 C     0.81190   2.14770   1.24000    18    17    20    26
 C     2.43120   1.88920  -0.21550    19    20    21    34
 C     1.24060   2.46680  -0.01540    20    19    18     9
 C     2.61980   1.08080  -1.30360    21    37    19     7
 C    -1.18710  -1.09810   1.97460    22    23    24    28
 C    -2.42950  -0.67700   1.56350    23    14    22    31
 C    -0.54410  -2.09460   1.26600    24    25    22    32
 C     0.80520  -2.11530   1.21650    25    24    38    29
 C     1.69480   1.21000   1.76350    26    18    34    27
 C     1.05490   0.01890   2.22800    27    29    26    28
 C    -0.37760   0.01580   2.34390    28    15    22    27
 C     1.67300  -1.16870   1.73110    29    25    36    27
 C    -3.61710  -0.01430  -0.16280    30     1    31    16
 C    -3.10750  -1.13700   0.45090    31    30    23    33
 C    -1.04990  -2.38290  -0.03090    32    33    10    24
 C    -2.26510  -1.84700  -0.42020    33    32     2    31
 C     2.80370   1.16590   0.90470    34    35    19    26
 C     3.36900   0.00750   0.44820    35    34    36    37
 C     2.76480  -1.15340   0.85700    36    35    39    29
 C     3.30800  -0.01850  -0.93170    37    21    40    35
 C     1.24650  -2.46250  -0.02640    38    39    25    10
 C     2.45300  -1.92030  -0.26060    39    38    40    36
 C     2.65160  -1.12980  -1.34440    40    37    39    13
