    40
C40-C1-6                                                                        
 C    -0.19360  -2.07170   1.26420     1     4     2    20
 C    -1.43260  -2.09340   0.68640     2     1     3    10
 C    -2.46900  -1.33700   1.19130     3     5     2    19
 C     0.91350  -2.36080   0.53450     4     1    27     8
 C    -3.34780  -1.03650   0.19660     5    11     3     6
 C    -2.67180  -1.30370  -0.95570     6     5     7    10
 C    -2.60550  -0.11950  -1.63550     7     6    12    40
 C     0.90710  -2.23980  -0.85030     8    36     4     9
 C    -0.29850  -1.81340  -1.45130     9     8    10    39
 C    -1.51050  -2.01620  -0.73680    10     6     9     2
 C    -3.67260   0.28120   0.21810    11     5    12    14
 C    -3.28430   0.85740  -0.94900    12    16    11     7
 C    -2.05560   1.80450   0.59200    13    15    14    16
 C    -2.80900   0.78630   1.17270    14    11    13    19
 C    -0.78150   2.04920   1.02040    15    13    17    24
 C    -2.33670   1.80700  -0.77340    16    12    13    33
 C    -0.15660   1.23700   1.98740    17    21    15    18
 C    -0.75560  -0.00320   2.30370    18    19    17    20
 C    -2.09070  -0.18540   1.88420    19     3    14    18
 C     0.20300  -1.04930   2.15450    20     1    23    18
 C     1.18950   1.38240   1.79520    21    25    17    22
 C     2.15440   0.39970   1.85970    22    21    23    29
 C     1.60600  -0.88660   1.97870    23    27    22    20
 C     0.24800   2.44620   0.14380    24    25    15    35
 C     1.46330   2.21720   0.75460    25    32    21    24
 C     2.90890  -1.49370   0.03860    26    27    28    36
 C     2.04900  -1.81020   1.03980    27    26     4    23
 C     3.49640  -0.24780  -0.04190    28    26    30    29
 C     3.10230   0.72350   0.86540    29    28    32    22
 C     3.09810   0.23550  -1.27330    30    37    31    28
 C     2.51040   1.44800  -1.14360    31    30    32    34
 C     2.60670   1.81830   0.16020    32    25    31    29
 C    -1.19730   1.60250  -1.55440    33    16    35    40
 C     1.23520   1.40370  -1.74910    34    31    35    38
 C     0.08910   2.04690  -1.22410    35    33    34    24
 C     2.14640  -1.69400  -1.11970    36    37     8    26
 C     2.24090  -0.58860  -1.89410    37    30    36    38
 C     1.06760   0.05990  -2.23320    38    37    39    34
 C    -0.21420  -0.53940  -2.17560    39    40    38     9
 C    -1.35400   0.28560  -2.07660    40     7    39    33
