    40
C40-Cs-28                                                                       
 C     2.53830   1.37560   0.85090     1    26     5     2
 C     1.42250   1.54570   1.66840     2    12     1     3
 C     0.73800   0.36100   2.13560     3     4     2    14
 C     1.42360  -0.87790   1.86160     4    30    25     3
 C     2.21680   1.96370  -0.36370     5     8     6     1
 C     2.33220   1.01220  -1.35530     6     5    18     7
 C     1.15430   0.73890  -2.08050     7    19     6    10
 C     1.09770   2.69480  -0.18860     8     5    12     9
 C     0.00550   2.62350  -1.03280     9     8    35    10
 C     0.00150   1.55210  -1.95610    10    24     9     7
 C    -0.67160   2.52140   1.09970    11    12    15    35
 C     0.65830   2.53250   1.10300    12    11     2     8
 C    -1.40390  -0.87400   1.85950    13    29    38    14
 C    -0.73080   0.37100   2.13450    14    13    15     3
 C    -1.45030   1.54150   1.67160    15    11    40    14
 C     2.60790  -1.34950  -0.89600    16    28    18    17
 C     1.42280  -1.60970  -1.56930    17    16    19    21
 C     2.98660  -0.04250  -0.74630    18    16     6    26
 C     0.69400  -0.58700  -2.19750    19    20    17     7
 C    -0.70050  -0.59450  -2.20040    20    19    23    24
 C     0.70180  -2.51660  -0.76010    21    22    27    17
 C    -0.67860  -2.50790  -0.76710    22    21    32    23
 C    -1.42980  -1.62490  -1.58260    23    34    20    22
 C    -1.15170   0.74170  -2.07110    24    10    37    20
 C     2.67390  -0.96070   1.20500    25    26    28     4
 C     3.10710   0.18030   0.61450    26     1    25    18
 C     1.42600  -2.62190   0.43600    27    28    21    30
 C     2.58640  -1.98570   0.31340    28    27    25    16
 C    -0.66860  -2.01250   1.47750    29    30    32    13
 C     0.69530  -2.02300   1.47750    30    29    27     4
 C    -2.55060  -1.93590   0.28250    31    32    34    38
 C    -1.39370  -2.57950   0.42740    32    31    22    29
 C    -3.00570  -0.05090  -0.74680    33    34    37    39
 C    -2.62410  -1.34630  -0.93700    34    31    33    23
 C    -1.10160   2.70020  -0.20290    35    36    11     9
 C    -2.22320   1.97240  -0.33100    36    35    37    40
 C    -2.31990   1.00980  -1.31800    37    36    33    24
 C    -2.65360  -0.92980   1.19960    38    39    31    13
 C    -3.14220   0.19970   0.61900    39    40    38    33
 C    -2.59140   1.39420   0.86970    40    39    36    15
