    40
C40-D5d-39                                                                      
 C    -1.67830   2.31680  -0.62290     1     2    25     3
 C    -0.42450   2.81880  -0.62030     2     1     9     4
 C    -2.06360   1.26620  -1.44080     3     1    34     6
 C     0.58010   2.33210  -1.43670     4     2    11     5
 C     0.27820   1.15170  -2.14940     5     4     6    14
 C    -1.02750   0.61520  -2.15330     6     5     8     3
 C    -1.87260  -1.58080  -1.45820     7    39    33     8
 C    -0.91940  -0.79640  -2.15880     8     6     7    37
 C     0.02230   2.89360   0.67850     9    10     2    17
 C     1.33150   2.57030   0.65300    10     9    11    18
 C     1.72050   2.32480  -0.64970    11    12    10     4
 C     2.58890   1.29350  -0.63020    12    11    19    13
 C     2.41380   0.17370  -1.43400    13    35    12    14
 C     1.19490   0.07080  -2.14890    14    13     5    37
 C    -0.45700   1.14400   2.17940    15    26    17    16
 C     0.92290   0.80360   2.17720    16    18    20    15
 C    -0.93680   2.27040   1.46410    17    25     9    15
 C     1.86760   1.57250   1.45230    18    19    10    16
 C     2.77610   0.88000   0.67210    19    22    12    18
 C     1.02530  -0.61180   2.17270    20    27    21    16
 C     2.04530  -1.26280   1.43310    21    32    22    20
 C     2.85660  -0.46490   0.64400    22    19    35    21
 C    -2.76730   0.92070   0.64130    23    25    24    34
 C    -2.39760  -0.15190   1.43910    24    28    23    26
 C    -2.05820   2.06770   0.67550    25    23     1    17
 C    -1.19150  -0.06810   2.17380    26    27    24    15
 C    -0.28360  -1.14710   2.17290    27    26    30    20
 C    -2.55100  -1.25900   0.62350    28    29    33    24
 C    -1.68120  -2.28680   0.62130    29    28    39    30
 C    -0.55920  -2.31580   1.42670    30    31    29    27
 C     0.43100  -2.83940   0.62530    31    32    30    40
 C     1.67920  -2.32300   0.62910    32    31    36    21
 C    -2.78730  -0.87360  -0.67640    33    34    28     7
 C    -2.89680   0.46960  -0.66590    34    33    23     3
 C     2.75990  -0.92350  -0.65870    35    36    22    13
 C     2.04590  -2.07430  -0.67570    36    35    32    38
 C     0.45830  -1.14160  -2.16000    37    14     8    38
 C     0.91810  -2.28980  -1.45610    38    40    36    37
 C    -1.33650  -2.60180  -0.67690    39    40    29     7
 C    -0.02800  -2.94210  -0.67800    40    39    31    38
