    30
C30-D5h-1                                                                       
 C     2.59450   1.07210  -0.33560     1    17     5     2
 C     1.40670   1.73520  -0.55320     2     1    23     4
 C    -0.69040   1.16450  -1.62330     3     4    11    24
 C     0.70180   1.15590  -1.62830     4     3     6     2
 C     2.58570  -0.00900  -1.18470     5     6     7     1
 C     1.42180  -0.01660  -1.90890     6     5     9     4
 C     2.59680  -1.09720  -0.34660     7    12     5    10
 C    -0.70000  -1.15990  -1.62770     8     9    11    16
 C     0.69530  -1.18380  -1.63050     9     8     6    10
 C     1.40980  -1.76650  -0.56980    10     7    14     9
 C    -1.44390   0.00770  -1.88210    11    30     3     8
 C     2.62710  -0.66770   0.95340    12     7    17    15
 C    -0.69130  -1.89380   0.60280    13    14    16    21
 C     0.69890  -1.89330   0.62550    14    13    10    15
 C     1.42770  -1.07910   1.50900    15    12    19    14
 C    -1.43690  -1.76000  -0.58130    16    29    13     8
 C     2.63040   0.70160   0.98290    17    12     1    20
 C    -0.67680  -0.00290   1.98380    18    19    25    21
 C     0.71620   0.02440   2.00130    19    18    15    20
 C     1.44680   1.14090   1.54470    20    17    23    19
 C    -1.42390  -1.09210   1.49580    21    28    13    18
 C    -0.68140   1.91560   0.61850    22    23    24    25
 C     0.70500   1.93080   0.64490    23    22     2    20
 C    -1.41010   1.75600  -0.57050    24    26    22     3
 C    -1.41440   1.09440   1.50080    25    27    18    22
 C    -2.59290   1.09290  -0.34720    26    27    24    30
 C    -2.60240   0.66320   0.95120    27    26    28    25
 C    -2.62520  -0.70670   0.93430    28    27    29    21
 C    -2.64470  -1.11500  -0.37980    29    30    28    16
 C    -2.63280  -0.00960  -1.17980    30    29    11    26
