    94
C94-C1-119                                                                      
 C    -3.68730   0.44980  -2.41690     1     2     5    49
 C    -3.63780  -0.92010  -2.28180     2     1    17    36
 C    -2.81290   2.95600  -1.66060     3     4    52     9
 C    -3.74630   2.35160  -0.93250     4     3     7     5
 C    -4.22090   1.12250  -1.30740     5     4    15     1
 C    -2.42140   2.69020   2.30230     6    14     8    20
 C    -3.75150   2.48180   0.42070     7     4    19     8
 C    -2.74560   3.21330   1.06850     8     6     7    11
 C    -1.82890   3.72550  -1.05720     9    64     3    11
 C    -0.37420   4.01350   0.84320    10    13    11    67
 C    -1.70940   3.85900   0.32450    11     9     8    10
 C     1.09930   3.11790   2.56130    12    68    13    91
 C    -0.15900   3.50810   2.16390    13    12    14    10
 C    -1.17380   2.82510   2.82440    14     6    13    93
 C    -4.61830   0.49190  -0.14600    15    16     5    19
 C    -4.56160  -0.87770  -0.02830    16    15    17    18
 C    -4.08630  -1.56710  -1.13450    17    25    16     2
 C    -4.19260  -1.37850   1.21280    18    23    22    16
 C    -4.32280   1.32780   0.92390    19    21     7    15
 C    -2.96840   1.51480   2.80990    20    21    27     6
 C    -3.92550   0.80820   2.13360    21    20    22    19
 C    -3.85640  -0.55630   2.26410    22    21    18    29
 C    -3.44030  -2.52300   1.33670    23    24    18    30
 C    -3.05800  -3.23990   0.23180    24    26    23    25
 C    -3.36720  -2.72350  -1.01270    25    17    24    35
 C    -1.87650  -3.90250   0.33210    26    24    33    32
 C    -2.00730   0.89350   3.59130    27    93    20    28
 C    -1.87480  -0.49700   3.68860    28    29    27    83
 C    -2.85960  -1.18560   3.00490    29    30    28    22
 C    -2.60760  -2.40370   2.44740    30    29    31    23
 C    -1.36420  -3.00940   2.54190    31    32    30    46
 C    -1.05690  -3.82690   1.46570    32    45    31    26
 C    -1.06690  -4.09290  -0.76070    33    39    26    34
 C    -1.30820  -3.49560  -2.00800    34    35    33    42
 C    -2.48770  -2.80890  -2.08090    35    34    36    25
 C    -2.62110  -1.68090  -2.85410    36    35     2    38
 C    -0.28180  -1.84680  -3.56690    37    42    43    38
 C    -1.55850  -1.14390  -3.59160    38    36    48    37
 C     0.17780  -4.27380  -0.27500    39    40    33    45
 C     1.21980  -3.99080  -1.03590    40    39    89    41
 C     1.05770  -3.38280  -2.26970    41    60    40    42
 C    -0.19850  -3.04750  -2.77150    42    41    34    37
 C     0.95290  -1.11010  -3.78110    43    44    61    37
 C     0.81170   0.25730  -3.98650    44    47    43    57
 C     0.22580  -4.07850   1.08600    45    32    39    87
 C    -0.29430  -2.37560   3.25240    46    31    86    83
 C    -0.41080   0.89400  -3.97720    47    50    44    48
 C    -1.63610   0.26440  -3.78170    48    47    38    49
 C    -2.68020   1.06000  -3.18930    49     1    52    48
 C    -0.16040   2.18300  -3.57560    50    51    53    47
 C    -1.08970   2.88520  -2.94250    51    50    52    64
 C    -2.32120   2.36150  -2.78700    52    51     3    49
 C     1.14030   2.35750  -3.29040    53    50    57    54
 C     1.55050   3.22570  -2.26890    54    55    53    63
 C     2.74870   2.86880  -1.72220    55    54    65    58
 C     2.97050   0.82470  -3.05360    56    57    58    59
 C     1.78630   1.18100  -3.61860    57    56    53    44
 C     3.47470   1.74870  -2.12660    58    74    55    56
 C     3.23750  -0.54750  -2.87290    59    56    62    61
 C     2.20450  -2.67680  -2.48640    60    41    77    61
 C     2.22060  -1.50670  -3.23550    61    60    43    59
 C     4.08120  -0.86270  -1.78490    62    81    73    59
 C     0.56290   3.86930  -1.46680    63    64    54    67
 C    -0.74510   3.70890  -1.88790    64     9    51    63
 C     3.03060   3.11170  -0.40120    65    55    69    66
 C     2.06940   3.67280   0.44400    66    68    65    67
 C     0.78490   4.05770  -0.05520    67    66    63    10
 C     2.19800   3.22380   1.74630    68    12    66    71
 C     3.98040   2.17340  -0.00200    69    74    70    65
 C     4.04040   1.68880   1.29650    70    71    69    76
 C     3.13090   2.27440   2.15000    71    90    70    68
 C     4.61130  -0.45280   0.36230    72    73    80    76
 C     4.56250   0.08170  -0.90770    73    74    62    72
 C     4.25000   1.37200  -1.07600    74    73    58    69
 C     3.68620  -0.36420   2.50540    75    94    78    76
 C     4.35380   0.31490   1.48830    76    72    75    70
 C     3.03540  -2.90050  -1.40370    77    81    89    60
 C     3.24190  -1.67610   2.39900    78    79    75    85
 C     3.48990  -2.43520   1.27830    79    78    80    88
 C     4.20750  -1.77380   0.27040    80    81    72    79
 C     3.94480  -2.00150  -1.05400    81    77    62    80
 C     0.51670  -0.14900   4.04220    82    84    92    83
 C    -0.56690  -1.06560   3.85190    83    82    28    46
 C     1.79760  -0.58710   3.71250    84    85    94    82
 C     2.06520  -1.80880   3.14010    85    84    86    78
 C     1.06220  -2.72370   2.85300    86    85    87    46
 C     1.34600  -3.57790   1.73480    87    45    86    88
 C     2.52780  -3.40390   0.93390    88    79    89    87
 C     2.38740  -3.63280  -0.45300    89    40    77    88
 C     2.55130   1.58050   3.16900    90    94    91    71
 C     1.32570   2.06290   3.44470    91    90    92    12
 C     0.30840   1.26130   3.93260    92    93    91    82
 C    -0.93520   1.72680   3.65800    93    92    27    14
 C     2.80460   0.27040   3.32520    94    90    75    84
