    94
C94-C2-61                                                                       
 C    -4.02410   0.10280  -2.12500     1     3     2    15
 C    -3.82740  -1.24180  -2.15330     2     4     1     6
 C    -4.50650   0.69670  -1.00810     3     1    14    58
 C    -4.12330  -1.98850  -1.06810     4     2     5    59
 C    -3.31870  -3.03360  -0.76140     5     4    65     8
 C    -2.72080  -1.51290  -2.91510     6     2    22     7
 C    -1.87890  -2.59560  -2.68040     7     6    24     8
 C    -2.21120  -3.42070  -1.54000     8    10     5     7
 C     0.08460  -4.00290  -1.36020     9    10    94    23
 C    -1.17510  -4.05920  -0.84590    10     9     8    11
 C    -1.21840  -4.11010   0.55570    11    64    92    10
 C    -3.12760   2.65600  -1.42640    12    14    30    13
 C    -2.61660   1.99400  -2.61770    13    15    17    12
 C    -4.03550   1.92440  -0.64580    14     3    43    12
 C    -3.06650   0.70450  -2.88200    15     1    13    22
 C    -0.51420   1.24970  -3.71390    16    19    26    17
 C    -1.33240   2.28420  -3.11040    17    18    13    16
 C    -0.66350   3.32630  -2.47370    18    21    29    17
 C     0.86120   1.42470  -3.65090    19    20    28    16
 C     1.44410   2.50270  -3.05080    20    21    41    19
 C     0.70240   3.42340  -2.44930    21    20    35    18
 C    -2.25570  -0.30480  -3.41210    22    26     6    15
 C     0.41040  -3.23740  -2.47650    23    87    24     9
 C    -0.53050  -2.44220  -3.12030    24    23     7    25
 C    -0.01690  -1.21460  -3.69470    25    24    27    26
 C    -0.94320  -0.10300  -3.79210    26    22    16    25
 C     1.40220  -0.93420  -3.59420    27    28    88    25
 C     1.78070   0.39990  -3.60150    28    19    27    83
 C    -1.12090   3.93900  -1.32830    29    18    32    30
 C    -2.32410   3.58910  -0.72210    30    29    12    31
 C    -2.34960   3.63960   0.71620    31    34    42    30
 C     0.00680   4.34180  -0.64100    32    33    35    29
 C    -0.00200   4.32600   0.68550    33    32    34    36
 C    -1.13750   3.98520   1.34040    34    33    44    31
 C     1.14610   4.01130  -1.29940    35    32    21    38
 C     1.12960   3.91950   1.37180    36    47    33    37
 C     2.33160   3.58240   0.75320    37    36    52    38
 C     2.35490   3.64730  -0.68440    38    35    40    37
 C     4.03020   1.94260  -0.71320    39    40    51    85
 C     3.17010   2.74980  -1.40300    40    39    41    38
 C     2.67250   2.17750  -2.58030    41    20    83    40
 C    -3.16770   2.74210   1.42900    42    43    46    31
 C    -4.03070   1.93690   0.74430    43    42    14    57
 C    -0.69160   3.39840   2.48960    44    45    34    47
 C    -1.43940   2.47160   3.07720    45    44    46    48
 C    -2.66670   2.15910   2.59750    46    45    55    42
 C     0.67210   3.30730   2.51910    47    44    36    50
 C    -0.85610   1.39590   3.67950    48    45    66    49
 C     0.51970   1.22580   3.73710    49    48    68    50
 C     1.34610   2.26060   3.14290    50    47    53    49
 C     4.05060   1.91640   0.67730    51    80    39    52
 C     3.13770   2.64680   1.45310    52    51    37    53
 C     2.62760   1.97640   2.64310    53    54    50    52
 C     3.07650   0.68250   2.89990    54    81    53    67
 C    -2.91530   0.85360   2.98040    55    56    46    66
 C    -3.79780   0.05720   2.29940    56    55    57    61
 C    -4.40750   0.66690   1.18690    57    58    43    56
 C    -4.76770  -0.05980   0.10000    58    59    57     3
 C    -4.57070  -1.39110   0.08430    59    58    62     4
 C    -2.32470  -1.82020   2.93000    60    63    70    61
 C    -3.52740  -1.33350   2.28630    61    62    56    60
 C    -3.98560  -2.02840   1.14380    62    65    59    61
 C    -1.75150  -2.96440   2.37870    63    64    72    60
 C    -2.24240  -3.56440   1.24450    64    65    11    63
 C    -3.30630  -3.09020   0.62130    65    64    62     5
 C    -1.77380   0.37030   3.61630    66    48    70    55
 C     2.26000  -0.32920   3.41990    67    68    74    54
 C     0.94600  -0.12920   3.80050    68    67    49    69
 C     0.02200  -1.24370   3.69040    69    71    70    68
 C    -1.39630  -0.96340   3.59280    70    66    60    69
 C     0.53180  -2.46690   3.10600    71    72    75    69
 C    -0.40740  -3.25760   2.45070    72    63    71    92
 C     3.83050  -1.25870   2.15520    73    76    81    74
 C     2.72280  -1.53520   2.91380    74    73    67    75
 C     1.88010  -2.61600   2.66980    75    74    71    78
 C     4.11700  -1.99390   1.06000    76    73    77    82
 C     3.31020  -3.03410   0.74580    77    76    89    78
 C     2.20930  -3.43400   1.52360    78    93    77    75
 C     4.75390  -0.05020  -0.08590    79    82    85    80
 C     4.51930   0.69200   1.03670    80    81    51    79
 C     4.03730   0.08420   2.14240    81    80    73    54
 C     4.55960  -1.38590  -0.08940    82    79    90    76
 C     2.92870   0.87720  -2.97410    83    84    41    28
 C     3.80460   0.07120  -2.30220    84    83    85    91
 C     4.40270   0.67610  -1.18220    85    79    39    84
 C     2.22740  -3.53730  -1.26540    86    89    94    87
 C     1.75070  -2.94580  -2.40930    87    86    23    88
 C     2.33390  -1.80250  -2.94590    88    87    27    91
 C     3.29720  -3.06440  -0.63750    89    86    90    77
 C     3.98880  -2.01110  -1.16310    90    89    82    91
 C     3.53390  -1.31810  -2.30190    91    90    84    88
 C    -0.08360  -4.02580   1.33550    92    93    11    72
 C     1.17590  -4.07030   0.82710    93    92    78    94
 C     1.21290  -4.10280  -0.57130    94    86     9    93
