    94
C94-C1-68                                                                       
 C     3.84190  -0.89220  -2.32310     1     8     3     2
 C     3.92380   0.47040  -2.30200     2     4     1    16
 C     4.17550  -1.63310  -1.24470     3     1    53    26
 C     4.37830   1.09560  -1.20880     4     2     5    54
 C     3.81760   2.26750  -0.83000     5     4    60    22
 C     0.76330  -2.33410  -3.24890     6     7    27    12
 C     2.04160  -2.39460  -2.79040     7     6     8    25
 C     2.77660  -1.24200  -3.06650     8     1     7     9
 C     2.19980  -0.06280  -3.54990     9    11    16     8
 C     0.17840   1.24070  -3.76610    10    11    14    20
 C     0.89160   0.01460  -3.91790    11     9    12    10
 C     0.21350  -1.19810  -3.84490    12    42    11     6
 C    -1.95480   2.11020  -3.06750    13    21    14    80
 C    -1.25300   1.11050  -3.72440    14    13    41    10
 C     2.23840   2.21900  -2.69590    15    16    20    22
 C     2.87730   1.00580  -3.01330    16     2     9    15
 C    -0.36010   4.27920  -0.19620    17    86    94    18
 C     0.58180   3.96430  -1.20960    18    24    17    19
 C     0.06110   3.30700  -2.37370    19    21    20    18
 C     0.86330   2.36430  -3.09880    20    19    15    10
 C    -1.33130   3.13910  -2.41320    21    13    87    19
 C     2.75960   2.90460  -1.53770    22    24     5    15
 C     2.12110   3.73270   0.63250    23    90    59    24
 C     1.90360   3.72610  -0.77380    24    22    18    23
 C     2.31750  -3.17600  -1.63070    25    26     7    29
 C     3.41650  -2.71710  -0.88350    26     3    45    25
 C    -0.25570  -3.06360  -2.68520    27     6    38    28
 C    -0.08870  -3.82700  -1.52400    28    27    33    29
 C     1.24390  -3.84830  -0.94910    29    25    30    28
 C     1.36060  -3.95890   0.48220    30    31    44    29
 C     0.16820  -4.05210   1.18940    31    34    46    30
 C    -2.53010  -3.35460  -1.14790    32    40    35    33
 C    -1.28420  -3.95700  -0.74660    33    34    28    32
 C    -1.07950  -4.08170   0.62510    34    31    37    33
 C    -3.40580  -2.92700  -0.12160    35    36    75    32
 C    -3.09280  -3.01200   1.19590    36    37    35    61
 C    -1.96090  -3.58940   1.56740    37    36    49    34
 C    -1.43730  -2.44570  -3.04180    38    40    27    42
 C    -3.45880  -1.49120  -2.39750    39    74    43    40
 C    -2.59560  -2.58160  -2.32190    40    38    39    32
 C    -1.91260  -0.15930  -3.73210    41    42    43    14
 C    -1.12660  -1.28020  -3.73870    42    12    41    38
 C    -3.12500  -0.32910  -3.07400    43    81    39    41
 C     2.44010  -3.35160   1.18480    44    45    48    30
 C     3.45240  -2.76290   0.49250    45    44    26    52
 C    -0.00520  -3.49110   2.44260    46    47    49    31
 C     0.97430  -2.79100   2.99650    47    46    48    65
 C     2.18820  -2.74000   2.41820    48    47    50    44
 C    -1.28560  -3.13460   2.65880    49    46    37    63
 C     2.77660  -1.55800   2.83780    50    51    48    66
 C     3.77570  -0.96180   2.12060    51    50    52    56
 C     4.15580  -1.64580   0.95550    52    53    45    51
 C     4.63130  -0.98710  -0.13010    53    54    52     3
 C     4.73580   0.35890  -0.09990    54    53    57     4
 C     2.84360   1.18060   2.91400    55    58    69    56
 C     3.84410   0.45170   2.16850    56    57    51    55
 C     4.37030   1.06580   1.00760    57    54    60    56
 C     2.52690   2.44410   2.42960    58    73    59    55
 C     3.04440   2.95240   1.25230    59    60    23    58
 C     3.91330   2.27010   0.54850    60    59    57     5
 C    -3.58250  -1.93150   1.88490    61    36    77    62
 C    -2.85870  -1.39010   2.95130    62    70    61    63
 C    -1.65280  -1.97770   3.37300    63    62    49    64
 C    -0.58420  -1.16090   3.87880    64    65    67    63
 C     0.71110  -1.63970   3.69610    65    47    66    64
 C     1.83460  -0.85550   3.58520    66    65    69    50
 C    -0.69250   0.25620   3.95710    67    71    64    68
 C     0.47100   1.11880   3.82550    68    72    69    67
 C     1.78440   0.52980   3.63030    69    66    55    68
 C    -2.97150  -0.02380   3.06120    70    62    71    78
 C    -1.94090   0.76290   3.55440    71    91    70    67
 C     0.24000   2.43910   3.30210    72    73    92    68
 C     1.30690   3.02650   2.61340    73    58    90    72
 C    -4.26710  -1.12100  -1.35150    74    75    84    39
 C    -4.22470  -1.82520  -0.22050    75    74    35    77
 C    -4.40830   0.21120   1.08220    76    78    77    83
 C    -4.31230  -1.17550   0.99120    77    75    61    76
 C    -3.73710   0.74660   2.17650    78    88    76    70
 C    -3.28060   2.69230  -1.34290    79    80    87    82
 C    -3.17110   1.89020  -2.43400    80    81    79    13
 C    -3.74520   0.69250  -2.42200    81    80    43    84
 C    -3.89340   2.28850  -0.12780    82    89    79    83
 C    -4.47370   0.98200  -0.11690    83    84    76    82
 C    -4.41480   0.24270  -1.31620    84    81    74    83
 C    -2.22430   3.69130   0.93160    85    93    86    89
 C    -1.69290   4.03550  -0.29230    86    87    17    85
 C    -2.18950   3.51070  -1.39350    87    86    79    21
 C    -3.20760   2.00330   2.16310    88    78    89    91
 C    -3.28990   2.81100   1.04340    89    88    85    82
 C     1.11780   3.87450   1.53690    90    94    23    73
 C    -2.11110   2.02130   3.03450    91    92    71    88
 C    -1.05070   2.87680   2.89800    92    91    93    72
 C    -1.17870   3.75350   1.82280    93    94    85    92
 C    -0.09210   4.18780   1.14070    94    90    93    17
