    94
C94-C2v-52                                                                      
 C    -4.34220  -1.17000  -1.34810     1     5    16    49
 C    -1.10710  -3.42240  -2.17180     2     3    60     6
 C    -2.33160  -2.83370  -2.19360     3     2     4    51
 C    -3.14950  -3.14670  -1.08970     4     5     8     3
 C    -4.10440  -2.29930  -0.66440     5     1     4    17
 C    -0.67880  -4.23590  -1.13250     6    10     7     2
 C    -1.42040  -4.33910   0.02460     7     8     6     9
 C    -2.64850  -3.79700   0.03120     8     7    18     4
 C    -0.68140  -4.21920   1.18510     9    13     7    20
 C     0.67530  -4.23550  -1.13500    10     6    12    70
 C     2.63990  -3.79280   0.01560    11    12    71    91
 C     1.40660  -4.33460   0.02780    12    11    13    10
 C     0.67380  -4.22000   1.18740    13     9    12    93
 C    -4.74810  -0.05240   0.67770    14    23    15    16
 C    -4.34910  -1.16000   1.35950    15    17    14    31
 C    -4.74850  -0.05000  -0.69460    16    39     1    14
 C    -4.11080  -2.30660   0.70800    17    15    18     5
 C    -3.16600  -3.15240   1.14740    18    17     8    19
 C    -2.33700  -2.82860   2.23940    19    20    18    30
 C    -1.11070  -3.40720   2.22560    20    19    33     9
 C    -3.08370   3.00230   1.32340    21    40    22    26
 C    -4.01520   2.21790   0.69010    22    21    23    38
 C    -4.28460   1.03700   1.34240    23    14    22    24
 C    -3.50260   0.57220   2.41490    24    31    25    23
 C    -2.43140   1.27840   2.92570    25    24    26    36
 C    -2.31960   2.55120   2.40130    26    28    25    21
 C     0.00130   2.66230   2.93040    27    28    29    37
 C    -1.14460   3.22420   2.39690    28    26    27    43
 C     1.14840   3.22770   2.40110    29    89    27    45
 C    -2.44760  -1.55160   2.86310    30    31    19    35
 C    -3.52390  -0.78770   2.40470    31    24    15    30
 C     1.26350   0.58820   3.42670    32    88    85    37
 C     0.00130  -2.83480   2.80080    33    93    20    34
 C    -0.00040  -1.54280   3.37020    34    33    85    35
 C    -1.27240  -0.86100   3.38990    35    34    36    30
 C    -1.26390   0.58940   3.42570    36    25    35    37
 C    -0.00120   1.30630   3.43560    37    27    36    32
 C    -4.02890   2.21540  -0.73570    38    39    42    22
 C    -4.30180   1.03230  -1.37150    39    16    38    48
 C    -2.31680   3.90270   0.65400    40    21    41    43
 C    -2.32610   3.89800  -0.70520    41    42    67    40
 C    -3.09810   3.00140  -1.36630    42    41    38    46
 C    -1.14890   4.11380   1.31990    43    40    44    28
 C     0.00400   4.49290   0.68570    44    43    45    66
 C     1.16130   4.11700   1.32180    45    80    44    29
 C    -2.33330   2.53500  -2.43900    46    52    47    42
 C    -2.43690   1.25430  -2.95240    47    48    46    55
 C    -3.51140   0.55540  -2.43310    48    49    47    39
 C    -3.52140  -0.80640  -2.39940    49    48     1    51
 C    -1.26930  -0.88620  -3.37870    50    59    55    51
 C    -2.44150  -1.57060  -2.84270    51    49     3    50
 C    -1.15090   3.20610  -2.42850    52    46    53    67
 C     0.00000   2.63670  -2.94810    53    52    65    54
 C    -0.00190   1.27780  -3.44220    54    53    55    57
 C    -1.26450   0.56320  -3.43440    55    47    50    54
 C     2.42570   1.25240  -2.92310    56    61    64    57
 C     1.26060   0.55840  -3.41890    57    56    58    54
 C     1.26810  -0.89000  -3.36680    58    59    57    63
 C    -0.00230  -1.57180  -3.34300    59    60    50    58
 C     0.00250  -2.85480  -2.75890    60    70     2    59
 C     3.49960   0.55740  -2.40120    61    62    56    78
 C     3.51540  -0.80570  -2.37110    62    61    73    63
 C     2.43890  -1.57390  -2.82620    63    62    69    58
 C     2.32850   2.53230  -2.41030    64    65    56    76
 C     1.14760   3.20260  -2.41710    65    64    53    68
 C    -0.00170   4.49000  -0.73340    66    67    68    44
 C    -1.15470   4.10920  -1.36140    67    41    66    52
 C     1.16230   4.10800  -1.35110    68    81    66    65
 C     2.33510  -2.84430  -2.19390    69    70    71    63
 C     1.11120  -3.42940  -2.17980    70    69    60    10
 C     3.16300  -3.15240  -1.09890    71    74    11    69
 C     4.75100  -0.05790  -0.67560    72    78    73    75
 C     4.35430  -1.17990  -1.33470    73    74    72    62
 C     4.11720  -2.31580  -0.66480    74    73    71    90
 C     4.75050  -0.04710   0.69830    75    82    94    72
 C     3.09690   3.01040  -1.34320    76    81    77    64
 C     4.02360   2.21940  -0.71100    77    76    78    83
 C     4.29720   1.03250  -1.34500    78    72    77    61
 C     3.09430   3.01730   1.33820    79    80    83    89
 C     2.33200   3.92130   0.66560    80    81    45    79
 C     2.33240   3.91890  -0.68960    81    80    76    68
 C     4.29670   1.04180   1.36040    82    75    83    87
 C     4.02500   2.22170   0.71490    83    82    79    77
 C     2.44510  -1.55140   2.85310    84    86    92    85
 C     1.27160  -0.86190   3.38690    85    34    32    84
 C     3.52320  -0.78520   2.39550    86    87    94    84
 C     3.50530   0.57960   2.42660    87    86    88    82
 C     2.43110   1.28220   2.93550    88    87    89    32
 C     2.32850   2.55780   2.41450    89    29    88    79
 C     4.12200  -2.31120   0.70740    90    94    91    74
 C     3.15770  -3.14800   1.13800    91    90    11    92
 C     2.33090  -2.82840   2.23330    92    93    91    84
 C     1.11030  -3.41290   2.22570    93    92    33    13
 C     4.36090  -1.16930   1.36060    94    90    75    86
