    94
C94-C1-113                                                                      
 C    -1.08750   1.88310  -3.48330     1     6     2    57
 C    -2.31740   2.00480  -2.91170     2     1     3     9
 C    -3.05730   0.83400  -2.94610     3     4     2    56
 C    -4.01450   0.57380  -2.01490     4     5     3    27
 C    -4.22490   1.44190  -1.00860     5     4    18    10
 C    -0.04900   2.68560  -3.13970     6     1    68     7
 C    -0.10860   3.63080  -2.10310     7     6    14     8
 C    -1.35920   3.73030  -1.39720     8     7    12     9
 C    -2.48200   2.94540  -1.84990     9    10     2     8
 C    -3.47180   2.59740  -0.91850    10    24     5     9
 C    -0.01890   4.20950   0.55770    11    13    84    12
 C    -1.30270   4.05770   0.00620    12    11    23     8
 C     1.15470   4.12910  -0.13370    13    11    14    92
 C     1.14790   3.86420  -1.48180    14    13    15     7
 C     2.29770   3.20520  -1.90160    15    69    89    14
 C    -4.15700  -0.76010   1.75130    16    28    22    17
 C    -4.65430  -0.39150   0.49390    17    18    16    26
 C    -4.54570   0.97870   0.24030    18     5    19    17
 C    -4.02110   1.88540   1.13360    19    18    21    24
 C    -2.47070   2.13980   2.85810    20    21    25    38
 C    -3.54340   1.46790   2.35890    21    20    22    19
 C    -3.58860   0.12850   2.63430    22    21    16    40
 C    -2.30250   3.59780   0.90690    23    24    25    12
 C    -3.37820   2.90000   0.41700    24    10    23    19
 C    -1.90840   3.20750   2.19260    25    85    20    23
 C    -4.44910  -1.29270  -0.57860    26    30    27    17
 C    -4.11120  -0.77610  -1.82440    27     4    26    47
 C    -3.50350  -1.94340   1.95120    28    29    16    31
 C    -3.37740  -2.81120   0.95100    29    28    36    30
 C    -3.82970  -2.50150  -0.31530    30    29    45    26
 C    -2.48040  -1.79860   2.87250    31    40    28    34
 C     2.40320  -3.50280   1.18520    32    77    51    37
 C     0.05810  -3.95480   1.37420    33    37    35    50
 C    -1.29360  -2.55120   2.86060    34    31    35    43
 C    -1.20750  -3.54780   1.83230    35    33    36    34
 C    -2.27090  -3.59490   0.90090    36    29    44    35
 C     1.23460  -3.48790   1.98090    37    33    32    41
 C    -1.45060   1.51210   3.57770    38    88    39    20
 C    -1.42750   0.13990   3.78330    39    40    38    42
 C    -2.54880  -0.51040   3.31750    40    31    39    22
 C     1.15380  -2.46560   2.99050    41    82    43    37
 C    -0.17160  -0.53100   3.85300    42    39    80    43
 C    -0.10700  -1.93210   3.40170    43    41    34    42
 C    -2.08950  -3.83030  -0.43610    44    48    45    36
 C    -2.96290  -3.11970  -1.19520    45    44    30    46
 C    -2.55360  -2.55040  -2.40870    46    47    45    53
 C    -3.18730  -1.36680  -2.68320    47    56    46    27
 C    -0.88130  -4.09230  -0.88220    48    44    50    52
 C     1.25440  -4.01660  -0.76220    49    51    50    58
 C     0.14750  -4.23950  -0.01650    50    48    49    33
 C     2.38000  -3.70550  -0.18240    51    49    67    32
 C    -0.43170  -3.58580  -2.08770    52    58    48    53
 C    -1.20450  -2.73770  -2.85940    53    52    46    54
 C    -0.47290  -1.71730  -3.56730    54    55    53    61
 C    -1.22870  -0.53110  -3.81840    55    57    56    54
 C    -2.53450  -0.38510  -3.37550    56    47    55     3
 C    -0.55250   0.65730  -3.92580    57    66    55     1
 C     0.92700  -3.52070  -2.00660    58    52    49    60
 C     2.99770  -2.29540  -2.06730    59    63    67    60
 C     1.72480  -2.58470  -2.67450    60    58    61    59
 C     1.00110  -1.63410  -3.47310    61    65    60    54
 C     4.43740  -0.53050  -1.20960    62    79    74    63
 C     3.60590  -1.02430  -2.26490    63    64    59    62
 C     2.92490  -0.07130  -3.06100    64    63    70    65
 C     1.65120  -0.36710  -3.65610    65    66    61    64
 C     0.80380   0.73230  -3.87600    66    57    68    65
 C     3.29820  -2.93180  -0.82890    67    78    51    59
 C     1.09320   2.01090  -3.47780    68    69     6    66
 C     2.24440   2.26650  -2.89580    69    68    70    15
 C     3.16460   1.28590  -2.71420    70    69    75    64
 C     4.00150  -0.56360   2.16360    71    72    76    93
 C     4.62770  -0.27580   0.99550    72    73    71    79
 C     4.53240   0.97680   0.49080    73    72    74    90
 C     4.50610   0.80810  -0.88270    74    75    62    73
 C     3.89180   1.70110  -1.63210    75    74    70    89
 C     3.41050  -1.77540   2.33870    76    77    71    82
 C     3.46720  -2.69400   1.35910    77    76    32    78
 C     4.05500  -2.38120   0.15640    78    79    67    77
 C     4.62090  -1.19170  -0.02680    79    78    62    72
 C     1.02200   0.30100   3.79340    80    81    87    42
 C     2.20870  -0.29220   3.44290    81    80    82    93
 C     2.27760  -1.63150   3.10000    82    76    81    41
 C     1.59460   3.41820   1.93050    83    84    92    86
 C     0.29500   3.81950   1.84000    84    85    83    11
 C    -0.62910   3.28190   2.61440    85    84    25    88
 C     2.00970   2.37570   2.78390    86    83    94    87
 C     0.96180   1.71070   3.53100    87    88    80    86
 C    -0.30980   2.24000   3.44060    88    38    85    87
 C     3.33580   2.82410  -1.07870    89    75    15    91
 C     3.85380   2.02630   1.14870    90    73    91    94
 C     3.29000   3.01050   0.30090    91    92    89    90
 C     2.17920   3.68790   0.72070    92    91    83    13
 C     3.26840   0.37810   2.82260    93    71    94    81
 C     3.17980   1.69730   2.38600    94    93    86    90
