    94
C94-C1-57                                                                       
 C     3.73720  -1.17320  -2.25460     1     5    16    52
 C     0.99320  -3.96070  -1.33570     2     3    59     7
 C     2.02760  -3.28420  -1.90780     3     2     4    57
 C     3.09400  -3.05040  -1.04160     4     5     3     9
 C     3.95690  -2.03640  -1.23290     5     4     1    17
 C    -0.35660  -4.36470   0.33420     6    10     7    13
 C     0.95160  -4.25270   0.02360     7     6     2     8
 C     1.90570  -3.78530   0.92590     8     9     7    23
 C     3.00760  -3.24310   0.34520     9     8    21     4
 C    -0.77110  -4.01500   1.55430    10     6    93    22
 C    -2.81830  -2.85920  -1.69270    11    73    12    61
 C    -2.44050  -3.63710  -0.62010    12    11    13    92
 C    -1.15500  -4.14370  -0.75010    13     6    12    59
 C     4.56820   0.57370  -0.93620    14    30    16    15
 C     4.73480  -0.29630   0.10810    15    17    19    14
 C     4.02690   0.14400  -2.10270    16    14     1    36
 C     4.41130  -1.59030  -0.02620    17    15     5    21
 C     2.88100   0.53160   3.00810    18    27    20    32
 C     4.42450   0.35560   1.25970    19    15    31    20
 C     3.72700  -0.29780   2.29550    20    18    19    25
 C     3.75810  -2.27470   0.96850    21    17     9    25
 C     0.11890  -3.43840   2.44640    22    86    10    23
 C     1.47510  -3.27500   2.18460    23    22     8    24
 C     2.13790  -2.15180   2.79170    24    23    25    26
 C     3.34430  -1.66380   2.17080    25    21    20    24
 C     1.30630  -1.22850   3.55180    26    27    87    24
 C     1.71960   0.09540   3.60330    27    18    26    78
 C     2.63540   3.49270  -0.39110    28    37    29    34
 C     3.35390   2.63430  -1.18310    29    28    30    35
 C     4.21660   1.79020  -0.46830    30    14    31    29
 C     4.19170   1.68520   0.92340    31    33    19    30
 C     2.72750   1.87690   2.71930    32    33    47    18
 C     3.36430   2.47410   1.65280    33    31    34    32
 C     2.64330   3.43080   1.00490    34    33    49    28
 C     2.72770   2.16790  -2.38650    35    36    39    29
 C     3.10390   0.88800  -2.78690    36    16    51    35
 C     1.42560   3.98440  -0.77820    37    28    42    38
 C     0.77420   3.61490  -1.96600    38    37    45    39
 C     1.41940   2.60620  -2.77110    39    35    38    40
 C     0.56680   1.68090  -3.50360    40    41    50    39
 C    -0.80080   1.90610  -3.44920    41    53    46    40
 C     0.73290   4.28690   0.37490    42    43    49    37
 C    -0.58680   4.31160   0.39530    43    42    44    82
 C    -1.28390   4.12660  -0.74850    44    43    66    45
 C    -0.63400   3.74810  -1.93720    45    46    44    38
 C    -1.39190   2.91810  -2.71790    46    45    41    68
 C     1.46440   2.25630   3.13670    47    78    48    32
 C     0.75870   3.28430   2.54830    48    47    49    81
 C     1.42500   3.85610   1.45830    49    42    34    48
 C     0.95540   0.31650  -3.75820    50    51    40    55
 C     2.24250  -0.00960  -3.40340    51    50    52    36
 C     2.62710  -1.29330  -3.05160    52     1    51    57
 C    -1.74130   0.90870  -3.58640    53    41    54    62
 C    -1.38270  -0.42030  -3.73800    54    53    60    55
 C    -0.00840  -0.77160  -3.81560    55    54    50    56
 C     0.37920  -2.11140  -3.36880    56    57    58    55
 C     1.72560  -2.34430  -2.95060    57    52    56     3
 C    -0.62790  -2.95530  -2.80100    58    61    59    56
 C    -0.29160  -3.84600  -1.79640    59     2    58    13
 C    -2.31110  -1.31050  -3.20830    60    61    65    54
 C    -1.93450  -2.52020  -2.72580    61    60    58    11
 C    -2.90580   1.31260  -2.94840    62    68    64    53
 C    -4.39090   0.77140  -1.21000    63    64    71    69
 C    -3.77940   0.40570  -2.39240    64    65    62    63
 C    -3.46000  -0.91350  -2.53440    65    64    73    60
 C    -2.52880   3.67580  -0.37100    66    67    44    75
 C    -3.28590   2.90780  -1.21180    67    66    69    68
 C    -2.68270   2.54450  -2.39710    68    62    67    46
 C    -4.11850   1.99360  -0.61280    69    67    77    63
 C    -4.47370   0.51570   0.97140    70    74    77    71
 C    -4.62850  -0.16370  -0.21600    71    70    63    72
 C    -4.31170  -1.52260  -0.33410    72    73    71    91
 C    -3.74360  -1.85740  -1.56030    73    11    65    72
 C    -3.99840  -0.12220   2.04420    74    70    94    83
 C    -2.52230   3.48010   1.01350    75    82    76    66
 C    -3.26750   2.50460   1.62470    76    75    77    84
 C    -4.13080   1.81620   0.76060    77    70    69    76
 C     0.83670   1.17540   3.69990    78    47    79    27
 C    -0.54480   1.06190   3.76600    79    78    90    80
 C    -1.35340   2.13180   3.19630    80    84    81    79
 C    -0.65600   3.22750   2.57100    81    82    48    80
 C    -1.29380   3.84210   1.48440    82    75    43    81
 C    -3.10790   0.50310   2.90590    83    89    74    84
 C    -2.68020   1.81640   2.73100    84    83    76    80
 C    -1.92280  -2.68250   2.77630    85    88    93    86
 C    -0.62020  -2.56820   3.20260    86    22    85    87
 C    -0.09190  -1.39790   3.73900    87    86    26    90
 C    -2.76090  -1.66480   2.89930    88    85    94    89
 C    -2.31810  -0.48140   3.44060    89    83    88    90
 C    -1.00510  -0.27860   3.85280    90    89    79    87
 C    -3.87340  -2.23880   0.80830    91    94    72    92
 C    -2.95020  -3.31780   0.66610    92    93    12    91
 C    -2.03380  -3.52820   1.71370    93    85    10    92
 C    -3.75020  -1.46440   1.98160    94    88    74    91
