    94
C94-C1-2                                                                        
 C     3.46120   1.54130  -2.34140     1     9     4     2
 C     4.40870   1.32890  -1.33680     2     3     1     7
 C     4.79020   0.01020  -1.17920     3     2    61     6
 C     2.81810   0.51700  -3.01950     4     5     1    24
 C     3.13490  -0.79150  -2.81770     5     4     6    20
 C     4.20080  -1.01900  -1.92700     6    66     3     5
 C     4.30680   2.15980  -0.18820     7    11     8     2
 C     4.44670   1.54030   1.05320     8    63     7    31
 C     2.57580   2.56560  -2.31650     9    10     1    12
 C     2.57280   3.42050  -1.29520    10     9    18    11
 C     3.38510   3.17940  -0.20880    11     7    10    29
 C     1.39040   2.22550  -2.92910    12    24     9    16
 C    -2.23390   2.47020  -2.33380    13    14    15    34
 C    -3.31100   1.58110  -2.35000    14    27    89    13
 C    -1.01010   2.06030  -2.95950    15    16    13    26
 C     0.15920   2.81000  -2.64410    16    12    15    17
 C     0.16400   3.79260  -1.60180    17    33    18    16
 C     1.39580   3.98500  -0.94420    18    10    28    17
 C     2.20060  -2.85110  -2.15540    19    91    67    20
 C     2.06080  -1.71480  -2.95770    20    19     5    22
 C    -0.40500  -2.15150  -2.96250    21    94    22    92
 C     0.71630  -1.32020  -3.32280    22    21    23    20
 C     0.44660   0.08350  -3.54270    23    24    26    22
 C     1.53660   0.92660  -3.35930    24    12     4    23
 C    -1.95480  -0.23070  -3.27140    25    27    26    94
 C    -0.86190   0.66210  -3.42470    26    25    23    15
 C    -3.18100   0.28300  -2.81590    27    87    14    25
 C     1.49700   4.11070   0.41520    28    32    29    18
 C     2.62700   3.54220   0.88370    29    28    11    30
 C     2.60300   2.77270   2.05480    30    31    29    37
 C     3.53700   1.79580   2.09210    31    30    39     8
 C     0.39440   4.08510   1.11880    32    28    35    36
 C    -1.00600   3.98990  -0.86290    33    17    34    35
 C    -2.22260   3.42340  -1.25480    34    33    60    13
 C    -0.81270   4.14100   0.52950    35    32    58    33
 C     0.31110   3.32830   2.27180    36    42    37    32
 C     1.36200   2.56790   2.72730    37    36    30    45
 C     2.00410   0.29750   3.30370    38    39    45    49
 C     3.27490   0.61360   2.74330    39    40    31    38
 C     4.14030  -0.29750   2.20120    40    41    39    63
 C     3.80250  -1.59190   2.19140    41    40    64    50
 C    -0.99080   3.01900   2.43980    42    36    58    43
 C    -1.45350   1.85130   3.05240    43    42    55    44
 C    -0.41840   0.92280   3.45210    44    43    47    45
 C     0.99230   1.30220   3.33330    45    38    37    44
 C    -2.16120  -0.82420   3.12080    46    51    54    47
 C    -0.79250  -0.47910   3.44890    47    46    44    48
 C     0.26410  -1.47260   3.27850    48    49    53    47
 C     1.63430  -1.08190   3.26730    49    50    48    38
 C     2.57370  -1.96910   2.69560    50    70    41    49
 C    -2.37960  -2.09960   2.57520    51    52    81    46
 C    -1.35180  -2.94690   2.25870    52    53    51    74
 C    -0.05520  -2.72360   2.60580    53    52    69    48
 C    -3.17950   0.13230   2.78390    54    55    56    46
 C    -2.78810   1.48020   2.71440    55    54    59    43
 C    -4.28040  -0.27790   1.96200    56    80    85    54
 C    -2.86020   3.24290   1.06690    57    58    59    60
 C    -1.68320   3.64230   1.42570    58    57    35    42
 C    -3.49290   2.25750   1.74900    59    57    83    55
 C    -3.21280   3.22020  -0.26690    60    90    57    34
 C     5.10830  -0.52970   0.05530    61    62    63     3
 C     4.78330  -1.85030   0.05350    62    61    66    64
 C     4.84630   0.24770   1.15220    63     8    61    40
 C     4.16960  -2.40530   1.15490    64    65    41    62
 C     3.17270  -3.30660   1.03650    65    64    68    70
 C     4.25530  -2.15160  -1.17310    66    67     6    62
 C     3.25130  -3.04010  -1.28480    67    66    68    19
 C     2.74470  -3.68110  -0.19440    68    71    65    67
 C     0.89630  -3.45750   1.85240    69    70    53    72
 C     2.20700  -3.09740   1.99190    70    69    65    50
 C     1.45390  -3.99090  -0.40380    71    68    72    91
 C     0.49770  -4.03970   0.59140    72    75    71    69
 C    -3.00530  -3.31500   0.84960    73    74    76    81
 C    -1.74080  -3.66710   1.12990    74    73    75    52
 C    -0.81170  -4.02820   0.18210    75    72    74    78
 C    -3.43200  -3.21160  -0.43440    76    82    73    77
 C    -2.45370  -3.28540  -1.39960    77    78    76    93
 C    -1.17440  -3.71770  -1.17800    78    77    92    75
 C    -4.95090  -1.50650   0.17950    79    84    82    80
 C    -4.40030  -1.53830   1.45380    80    81    56    79
 C    -3.44710  -2.41600   1.76670    81    80    73    51
 C    -4.37170  -2.30540  -0.77540    82    76    86    79
 C    -4.44510   1.78810   0.90120    83    85    59    90
 C    -5.22360  -0.20210  -0.08540    84    79    85    88
 C    -4.89230   0.53590   1.02340    85    83    84    56
 C    -3.94180  -1.75280  -1.95310    86    87    82    93
 C    -4.17370  -0.45650  -2.20160    87    86    88    27
 C    -4.87240   0.32440  -1.32280    88    89    87    84
 C    -4.35790   1.57170  -1.43280    89    90    88    14
 C    -4.23170   2.34960  -0.34620    90    89    60    83
 C     1.11130  -3.52310  -1.67350    91    92    19    71
 C    -0.16900  -3.26720  -2.06000    92    91    78    21
 C    -2.74490  -2.31180  -2.33520    93    86    77    94
 C    -1.72510  -1.63250  -3.02700    94    93    21    25
