    94
C94-C1-55                                                                       
 C    -4.25480  -1.41680   0.96670     1    64     2     6
 C    -3.81330  -2.58360   0.38080     2     1     3     9
 C    -3.64140  -2.46850  -1.00010     3     4    61     2
 C    -2.65400  -3.15490  -1.63270     4     5     3    16
 C    -1.87430  -4.01620  -0.96410     5     4    17    10
 C    -3.74790  -0.97640   2.17080     6     7    11     1
 C    -2.79590  -1.67710   2.78000     7     6     8    91
 C    -2.39520  -2.87850   2.28970     8     7    23     9
 C    -2.89820  -3.39200   1.09240     9    10     8     2
 C    -1.96890  -4.13310   0.40560    10     9     5    25
 C    -3.74070   0.37540   2.23990    11     6    63    12
 C    -2.72630   1.12350   2.89850    12    13    11    90
 C    -2.48810   2.42620   2.41450    13    12    65    86
 C    -0.82350  -2.50480  -3.08830    14    16    28    15
 C    -0.01510  -3.50730  -2.44340    15    21    17    14
 C    -2.14180  -2.39540  -2.65910    16     4    26    14
 C    -0.59520  -4.20380  -1.36860    17     5    18    15
 C     0.10410  -4.51880  -0.22990    18    19    25    17
 C     1.40130  -4.26430  -0.15060    19    18    20    82
 C     2.06390  -3.75670  -1.22900    20    19    43    21
 C     1.37220  -3.32560  -2.37290    21    22    15    20
 C     1.91120  -2.20660  -2.95960    22    21    45    27
 C    -1.08470  -3.04600   2.70780    23    24     8    78
 C    -0.17390  -3.82000   2.03780    24    23    25    81
 C    -0.69430  -4.38560   0.86610    25    18    10    24
 C    -2.87300  -1.23010  -2.70190    26    16    30    61
 C     1.13080  -1.22120  -3.53270    27    22    33    28
 C    -0.25430  -1.30280  -3.60730    28    27    14    29
 C    -0.97730  -0.05780  -3.65610    29    28    31    30
 C    -2.35690  -0.03210  -3.19530    30    26    48    29
 C    -0.20460   1.17310  -3.60080    31    32    34    29
 C    -0.87690   2.30010  -3.17740    32    31    47    38
 C     1.83840  -0.03410  -3.44760    33    40    34    27
 C     1.22350   1.20340  -3.43770    34    33    31    36
 C     3.17260   1.96970  -2.07590    35    39    42    36
 C     1.92260   2.27150  -2.73810    36    37    35    34
 C     1.13340   3.35050  -2.23830    37    38    36    59
 C    -0.22590   3.35330  -2.54150    38    53    32    37
 C     3.47400   2.68560  -0.89850    39    58    73    35
 C     3.04870  -0.28750  -2.84090    40    42    33    45
 C     4.48960   0.16620  -1.05120    41    72    46    42
 C     3.74190   0.66780  -2.13550    42    40    41    35
 C     3.17550  -3.12260  -0.73740    43    44    20    75
 C     3.76150  -2.08780  -1.41300    44    46    43    45
 C     3.08370  -1.63060  -2.52180    45    44    22    40
 C     4.43310  -1.16840  -0.67050    46    44    41    77
 C    -2.20600   2.29960  -2.77560    47    50    32    48
 C    -2.98100   1.14810  -2.70160    48    47    30    49
 C    -3.97680   1.08710  -1.65010    49    60    52    48
 C    -2.35560   3.35730  -1.91950    50    51    53    47
 C    -3.20520   3.26070  -0.87940    51    50    52    54
 C    -3.98430   2.16970  -0.74290    52    51    62    49
 C    -1.16510   3.98200  -1.77130    53    50    56    38
 C    -2.80200   3.68560   0.36240    54    55    65    51
 C    -1.61240   4.26350   0.50470    55    54    56    85
 C    -0.80450   4.48750  -0.56870    56    57    53    55
 C     0.47040   4.45440  -0.17880    57    56    59    69
 C     2.60410   3.59980  -0.36270    58    59    39    67
 C     1.48860   4.00050  -1.01210    59    58    57    37
 C    -4.35440  -0.15710  -1.11920    60    61    49    64
 C    -3.84160  -1.28930  -1.69740    61    60     3    26
 C    -4.11910   1.98230   0.62180    62    63    65    52
 C    -4.36850   0.78580   1.09360    63    62    64    11
 C    -4.57690  -0.27670   0.26310    64    63     1    60
 C    -3.27250   2.82930   1.29440    65    54    62    13
 C     3.61140   2.58230   1.30230    66    67    70    73
 C     2.65380   3.48070   1.03300    67    66    68    58
 C     1.50980   3.61470   1.81630    68    69    67    87
 C     0.45970   4.18840   1.19810    69    68    85    57
 C     3.43790   1.71660   2.32630    70    74    66    92
 C     4.58650   0.04900   1.15110    71    77    74    72
 C     4.67410   0.89690   0.07390    72    73    41    71
 C     4.18250   2.13820   0.14190    73    72    66    39
 C     3.91480   0.45360   2.25540    74    70    71    83
 C     3.10890  -3.14770   0.65950    75    82    76    43
 C     3.65290  -2.15140   1.42560    76    75    77    84
 C     4.43100  -1.22370   0.72460    77    71    46    76
 C    -0.70220  -1.89970   3.39140    78    79    91    23
 C     0.60540  -1.47830   3.50070    79    78    94    80
 C     1.63080  -2.31960   2.89000    80    84    81    79
 C     1.19370  -3.47020   2.13040    81    82    24    80
 C     1.97580  -3.80770   1.01580    82    75    19    81
 C     3.04870  -0.37990   2.91000    83    74    93    84
 C     2.88490  -1.71670   2.55930    84    83    80    76
 C    -0.83160   3.96340   1.59440    85    69    55    86
 C    -1.18750   2.99570   2.56670    86    85    13    88
 C     1.24430   2.64750   2.84140    87    92    68    88
 C    -0.10660   2.26390   3.17950    88    86    87    89
 C    -0.34590   0.89520   3.63570    89    90    88    94
 C    -1.66540   0.36840   3.49640    90    91    89    12
 C    -1.77220  -1.02990   3.42490    91     7    78    90
 C     2.25750   1.71590   3.03090    92    70    93    87
 C     2.02330   0.41200   3.41780    93    94    92    83
 C     0.76460  -0.05840   3.69510    94    93    79    89
