    94
C94-C1-72                                                                       
 C    -2.52970   2.18190   2.69450     1     2     5    55
 C    -1.35210   2.04970   3.36660     2     1    15    41
 C    -4.11840   1.96050   0.45250     3     4     6    58
 C    -3.21620   2.93930   0.52810     4     3     5     7
 C    -2.46320   3.09940   1.64170     5     4    13     1
 C    -4.38020   1.36970  -0.75780     6     3    60     9
 C    -2.52130   3.37210  -0.57140     7     4    18     8
 C    -2.68990   2.77490  -1.82090     8     7    26     9
 C    -3.65000   1.70370  -1.91640     9     6    11     8
 C    -2.24340   0.66760  -3.53470    10    11    25    92
 C    -3.37700   0.60860  -2.78110    11    10    12     9
 C    -3.76010  -0.68050  -2.41830    12    61    11    89
 C    -1.30750   3.75260   1.26280    13    14     5    18
 C    -0.14090   3.66130   1.95510    14    13    15    21
 C    -0.23320   2.80430   3.06040    15    16     2    14
 C     0.83790   2.13040   3.51400    16    17    15    40
 C     2.03470   2.33120   2.97860    17    16    31    22
 C    -1.32020   3.89960  -0.11320    18    13     7    19
 C    -0.15100   3.95600  -0.86260    19    18    27    20
 C     1.12200   3.93860  -0.15350    20    21    24    19
 C     1.09420   3.79340   1.28120    21    22    14    20
 C     2.18600   3.15620   1.88230    22    37    17    21
 C     2.10560   3.01250  -2.13970    23    28    78    24
 C     2.30140   3.45840  -0.83280    24    23    36    20
 C    -1.40120   1.75160  -3.51690    25    84    10    26
 C    -1.53240   2.83000  -2.62620    26    25     8    27
 C    -0.29590   3.44030  -2.18450    27    28    19    26
 C     0.88170   2.98520  -2.75850    28    23    85    27
 C     3.30490  -0.94110   2.77670    29    42    30    35
 C     2.62100   0.05730   3.43390    30    29    31    39
 C     2.95160   1.33980   2.96610    31    17    32    30
 C     3.79670   1.58920   1.90640    32    34    31    37
 C     4.62640   0.71780  -0.08460    33    34    38    72
 C     4.45250   0.56970   1.27280    34    32    33    35
 C     4.20880  -0.70470   1.73930    35    51    34    29
 C     3.38900   2.84170  -0.13870    36    37    38    24
 C     3.28780   2.69950   1.22090    37    22    36    32
 C     4.11990   1.81850  -0.76480    38    79    33    36
 C     1.29740  -0.19960   3.91230    39    40    30    44
 C     0.44880   0.89660   3.98340    40    41    16    39
 C    -0.91800   0.84210   3.89700    41    40    46     2
 C     2.72770  -2.16120   2.57640    42    29    52    43
 C     1.43440  -2.44420   3.02270    43    49    42    44
 C     0.64670  -1.46400   3.70840    44    43    39    45
 C    -0.81410  -1.52510   3.62160    45    47    46    44
 C    -1.63100  -0.33180   3.73420    46    41    54    45
 C    -1.38450  -2.57800   2.84480    47    48    50    45
 C    -2.63890  -2.45020   2.29040    48    47    53    65
 C     0.78700  -3.37710   2.22820    49    50    43    77
 C    -0.56260  -3.43010   2.13750    50    49    47    63
 C     4.17270  -1.78680   0.88780    51    35    52    73
 C     3.27990  -2.69500   1.41410    52    76    51    42
 C    -3.41210  -1.32020   2.45560    53    56    48    54
 C    -2.92230  -0.19630   3.12580    54    53    46    55
 C    -3.38710   1.07220   2.60800    55     1    58    54
 C    -4.28040  -1.27470   1.39210    56    57    59    53
 C    -4.68920  -0.08630   0.89840    57    56    58    60
 C    -4.24080   1.04750   1.48820    58    57     3    55
 C    -4.00240  -2.30400   0.54450    59    65    62    56
 C    -4.78880   0.09400  -0.46100    60    61     6    57
 C    -4.46840  -0.93130  -1.28740    61    60    12    62
 C    -4.07270  -2.13700  -0.79730    62    59    61    71
 C    -0.88800  -3.93610   0.87580    63    66    64    50
 C    -2.07200  -3.69090   0.25790    64    63    65    70
 C    -2.99560  -3.03650   1.06480    65    59    64    48
 C     0.26380  -4.12230   0.18860    66    63    77    68
 C     1.59320  -3.51590  -1.60910    67    93    68    75
 C     0.33550  -3.90940  -1.18990    68    67    66    69
 C    -0.82950  -3.49540  -1.88920    69    68    70    90
 C    -2.07390  -3.47880  -1.16150    70    71    64    69
 C    -3.10730  -2.66680  -1.61720    71    62    89    70
 C     4.56540  -0.37200  -0.95320    72    73    81    33
 C     4.33280  -1.64660  -0.48370    73    72    74    51
 C     3.53880  -2.44570  -1.28980    74    75    73    82
 C     2.67850  -3.37090  -0.75030    75    74    76    67
 C     2.54520  -3.52640   0.61060    76    77    52    75
 C     1.31650  -3.87780   1.04780    77    76    66    49
 C     2.84920   1.98390  -2.70310    78    79    88    23
 C     3.82610   1.39180  -2.02100    79    78    38    81
 C     3.21110  -0.74170  -2.96860    80    82    81    87
 C     4.04490   0.04870  -2.16050    81    79    72    80
 C     2.97870  -2.01070  -2.48110    82    80    74    93
 C    -0.19470  -0.05110  -4.10860    83    92    84    86
 C    -0.19590   1.31200  -3.95830    84    85    25    83
 C     0.92050   1.93420  -3.64280    85    84    88    28
 C     0.93870  -0.84400  -3.93130    86    83    94    87
 C     2.17440  -0.13960  -3.70320    87    80    88    86
 C     2.08470   1.25960  -3.57010    88    85    78    87
 C    -2.92890  -1.78930  -2.65960    89    71    91    12
 C    -0.64440  -2.58280  -3.02250    90    91    94    69
 C    -1.73460  -1.71830  -3.34090    91    89    92    90
 C    -1.46400  -0.46200  -3.84660    92    83    91    10
 C     1.77210  -2.66750  -2.67360    93    67    82    94
 C     0.69590  -2.14360  -3.37570    94    93    86    90
