    94
C94-Cs-17                                                                       
 C     3.63440  -2.86170  -0.67830     1     3     7     2
 C     3.63540  -2.87710   0.69460     2     4    13     1
 C     4.15140  -1.82960  -1.35780     3     1    20    52
 C     4.15080  -1.83640   1.36370     4     2     5    55
 C     3.49410  -1.38290   2.46900     5     4    69    11
 C     0.59250  -4.10510   0.00180     6     8    16    14
 C     2.48790  -3.44120  -1.12520     7     1     8    18
 C     1.87400  -3.89620   0.00790     8     6    13     7
 C     1.77070   0.29640   3.67210     9    77    70    10
 C     1.35780  -1.04500   3.60350    10     9    11    36
 C     2.27410  -1.93130   2.96460    11    12    10     5
 C     1.75590  -3.05200   2.27500    12    11    13    15
 C     2.50030  -3.46770   1.14330    13     2     8    12
 C    -0.16130  -3.90950   1.12950    14    35     6    15
 C     0.35440  -3.28530   2.28810    15    14    12    37
 C    -0.15950  -3.89780  -1.12380    16    31     6    17
 C     0.35900  -3.27140  -2.27720    17    16    18    28
 C     1.75570  -3.02620  -2.26980    18    19    17     7
 C     2.28210  -1.90890  -2.95660    19    18    20    22
 C     3.49800  -1.36280  -2.45750    20     3    21    19
 C     3.78060  -0.02470  -2.47040    21    24    20    51
 C     1.36130  -1.02380  -3.59210    22    23    19    29
 C     1.78090   0.31330  -3.65280    23    44    24    22
 C     2.94160   0.78870  -3.06810    24    21    41    23
 C    -0.94310  -0.10540  -3.75730    25    26    43    29
 C    -2.26350  -0.23130  -3.38550    26    25    30    66
 C    -1.96680  -2.49440  -2.58420    27    30    33    28
 C    -0.58080  -2.44820  -2.98380    28    17    27    29
 C    -0.05500  -1.25640  -3.62790    29    22    28    25
 C    -2.78490  -1.40160  -2.87480    30    91    26    27
 C    -1.43750  -3.81620  -0.69470    31    16    33    35
 C    -3.52000  -2.83170  -0.69270    32    90    33    34
 C    -2.40790  -3.21850  -1.42930    33    31    32    27
 C    -3.52290  -2.84270   0.70960    34    88    39    32
 C    -1.44260  -3.82890   0.70900    35    14    39    31
 C    -0.06120  -1.26710   3.64190    36    10    37    92
 C    -0.58810  -2.46400   2.99540    37    15    38    36
 C    -1.97540  -2.51180   2.59740    38    94    39    37
 C    -2.41310  -3.23630   1.44540    39    35    34    38
 C     0.85630   3.33930  -2.45640    40    42    47    45
 C     2.78000   2.05740  -2.60840    41    42    24    49
 C     1.55450   2.41100  -3.07660    42    40    41    44
 C    -0.46010   1.23530  -3.72130    43    44    25    46
 C     0.91110   1.36340  -3.68820    44    23    42    43
 C    -0.51190   3.29610  -2.47700    45    40    62    46
 C    -1.23680   2.29580  -3.12060    46    45    67    43
 C     1.34270   3.88820  -1.30980    47    40    56    48
 C     2.55390   3.48130  -0.69690    48    47    57    49
 C     3.35190   2.53370  -1.39830    49    41    50    48
 C     4.20320   1.62800  -0.70530    50    49    51    53
 C     4.45760   0.37500  -1.33250    51    52    21    50
 C     4.72170  -0.78300  -0.66660    52    55    51     3
 C     4.19670   1.62820   0.72910    53    58    54    50
 C     4.44370   0.37240   1.35410    54    55    69    53
 C     4.71330  -0.77930   0.68230    55    52    54     4
 C     0.20530   4.25340  -0.64660    56    59    47    62
 C     2.54580   3.47960   0.72430    57    60    48    58
 C     3.34100   2.52780   1.42370    58    71    53    57
 C     0.19740   4.24660   0.67380    59    56    60    63
 C     1.33240   3.87770   1.33940    60    73    59    57
 C    -2.14840   3.59540  -0.70970    61    62    65    64
 C    -0.94110   3.90480  -1.32400    62    45    56    61
 C    -0.94480   3.89470   1.35160    63    72    59    64
 C    -2.15360   3.59220   0.73600    64    63    80    61
 C    -3.00770   2.74170  -1.43780    65    68    61    67
 C    -3.05480   0.81830  -2.90450    66    84    67    26
 C    -2.53040   2.07390  -2.63670    67    66    46    65
 C    -3.98440   2.08840  -0.68800    68    86    65    79
 C     3.76890  -0.03920   2.48930    69    70     5    54
 C     2.93130   0.77510   3.08310    70    69    71     9
 C     2.76560   2.04680   2.63050    71    74    70    58
 C    -0.51260   3.29330   2.50850    72    73    63    75
 C     0.85280   3.33850   2.49520    73    74    60    72
 C     1.55000   2.40730   3.10710    74    73    71    77
 C    -1.23920   2.28650   3.14150    75    72    83    76
 C    -0.46660   1.22050   3.74230    76    77    92    75
 C     0.90610   1.35410   3.71060    77     9    74    76
 C    -4.56450   0.90090   1.09860    78    81    85    79
 C    -3.99030   2.08990   0.70890    79    78    80    68
 C    -3.01440   2.73940   1.45550    80    79    64    83
 C    -4.06010   0.25300   2.18060    81    78    82    87
 C    -3.04850   0.80080   2.90900    82    81    83    93
 C    -2.53250   2.06500   2.64840    83    82    75    80
 C    -4.06770   0.27200  -2.17890    84    86    66    91
 C    -4.94970   0.18630  -0.00040    85    86    78    89
 C    -4.56710   0.90680  -1.08480    86    85    84    68
 C    -3.92740  -1.10310   2.17830    87    88    81    94
 C    -4.32230  -1.80920   1.09240    88    87    34    89
 C    -4.83550  -1.17920  -0.00450    89    90    88    85
 C    -4.31960  -1.80620  -1.09980    90    91    32    89
 C    -3.92830  -1.08900  -2.17760    91    90    84    30
 C    -0.95060  -0.11740   3.77600    92    93    76    36
 C    -2.26750  -0.25110   3.40000    93    94    92    82
 C    -2.78770  -1.41610   2.88810    94    93    87    38
