    94
C94-Cs-23                                                                       
 C     4.80410  -0.83850  -0.66310     1     3     7     2
 C     4.19900  -1.86530  -1.35450     2     4    13     1
 C     4.79670  -0.85000   0.69500     3     1    20    55
 C     3.66370  -2.89180  -0.67730     4     2     5    54
 C     2.51630  -3.46160  -1.13570     5     4    65    11
 C     2.96900   0.78700  -3.00470     6     8    16    14
 C     4.56350   0.32390  -1.33660     7     1     8    18
 C     3.83440  -0.05370  -2.45370     8     6    13     7
 C    -0.14280  -3.91410  -1.13320     9    31    64    10
 C     0.37820  -3.26770  -2.27420    10     9    11    33
 C     1.77430  -3.02480  -2.26550    11    12    10     5
 C     2.30190  -1.89700  -2.93290    12    11    13    15
 C     3.53640  -1.38620  -2.44990    13     8     2    12
 C     1.78360   0.35010  -3.54990    14     6    23    15
 C     1.36710  -0.99070  -3.52600    15    14    32    12
 C     2.84910   2.05330  -2.53110    16     6    24    17
 C     3.53180   2.47650  -1.38050    17    21    16    18
 C     4.37740   1.56860  -0.69930    18     7    17    19
 C     4.36970   1.56860   0.74170    19    20    38    18
 C     4.55190   0.31470   1.36430    20     3    41    19
 C     2.80020   3.39610  -0.66520    21    17    37    27
 C    -0.44730   1.28920  -3.55150    22    23    28    25
 C     0.92310   1.42350  -3.51060    23    14    22    24
 C     1.58240   2.47130  -2.89400    24    26    16    23
 C    -1.23930   2.34940  -2.95080    25    50    51    22
 C     0.88680   3.42110  -2.21470    26    24    27    51
 C     1.56660   3.87460  -1.08320    27    43    21    26
 C    -0.92970  -0.05960  -3.65320    28    29    22    32
 C    -2.25650  -0.21980  -3.32270    29    28    30    49
 C    -2.77400  -1.41340  -2.85940    30    91    29    36
 C    -1.42220  -3.84120  -0.70680    31     9    35    93
 C    -0.04270  -1.21570  -3.55860    32    15    33    28
 C    -0.56770  -2.43340  -2.95880    33    10    36    32
 C    -3.51430  -2.87650  -0.70590    34    90    35    94
 C    -2.39190  -3.24400  -1.44010    35    31    34    36
 C    -1.95260  -2.49800  -2.57680    36    30    35    33
 C     2.79450   3.40320   0.71850    37    38    21    44
 C     3.51900   2.47280   1.42370    38    37    39    19
 C     2.83060   2.03170   2.56250    39    40    46    38
 C     2.95110   0.76660   3.02930    40    41    39    57
 C     3.81750  -0.07110   2.47650    41    40    56    20
 C    -0.45070   4.22760   0.01210    42    43    48    66
 C     0.87440   4.22170   0.02680    43    42    44    27
 C     1.56590   3.88290   1.13830    44    43    37    45
 C     0.87010   3.41730   2.25470    45    46    44    67
 C     1.56100   2.44950   2.92220    46    45    39    70
 C    -2.39270   3.51310  -0.68890    47    48    52    82
 C    -1.15980   3.88720  -1.10950    48    47    42    51
 C    -3.07570   0.80270  -2.85660    49    84    50    29
 C    -2.58250   2.06950  -2.56480    50    49    25    52
 C    -0.52300   3.38000  -2.24550    51    48    26    25
 C    -3.19120   2.68500  -1.42390    52    47    53    50
 C    -4.17140   2.02580  -0.69370    53    86    52    80
 C     3.65900  -2.90520   0.69780    54    55    62     4
 C     4.19580  -1.88160   1.37500    55    54    56     3
 C     3.52080  -1.40510   2.46400    56    41    55    59
 C     1.76380   0.32880   3.56830    57    40    70    58
 C     1.35210  -1.01340   3.53070    58    57    73    59
 C     2.28060  -1.92280   2.93500    59    61    56    58
 C     0.36240  -3.28160   2.25400    60    63    61    71
 C     1.76100  -3.04610   2.25240    61    59    60    62
 C     2.50790  -3.47620   1.12380    62    54    65    61
 C    -0.14740  -3.92360   1.10610    63    93    64    60
 C     0.61050  -4.12760  -0.01170    64    65    63     9
 C     1.88800  -3.91940  -0.00850    65    64    62     5
 C    -1.16610   3.88690   1.13430    66    82    42    67
 C    -0.53860   3.37390   2.27790    67    66    45    68
 C    -1.25720   2.33490   2.96870    68    74    67    69
 C    -0.47140   1.27130   3.56860    69    70    72    68
 C     0.89910   1.40120   3.53780    70    69    57    46
 C    -0.57870  -2.44630   2.94780    71    60    78    73
 C    -0.95160  -0.07820   3.65870    72    76    69    73
 C    -0.06060  -1.23000   3.55980    73    58    71    72
 C    -2.59970   2.05640   2.57030    74    75    68    81
 C    -3.08510   0.77970   2.84780    75    83    76    74
 C    -2.27340  -0.24750   3.31730    76    72    77    75
 C    -2.79120  -1.43590   2.84360    77    87    76    78
 C    -1.96510  -2.51650   2.55890    78    77    92    71
 C    -4.69900   0.82610   1.09280    79    83    80    85
 C    -4.18230   2.02950   0.70790    80    79    81    53
 C    -3.20170   2.68900   1.43520    81    82    80    74
 C    -2.40130   3.51830   0.71380    82    66    81    47
 C    -4.12380   0.20250   2.15750    83    87    79    75
 C    -4.11630   0.22440  -2.17090    84    86    91    49
 C    -5.06980   0.08970  -0.00480    85    89    86    79
 C    -4.69010   0.82870  -1.09100    86    53    84    85
 C    -3.95020  -1.14770   2.15610    87    88    83    77
 C    -4.34440  -1.87370   1.07740    88    87    94    89
 C    -4.88800  -1.26270  -0.01860    89    85    90    88
 C    -4.33440  -1.86720  -1.11140    90    91    34    89
 C    -3.93690  -1.12990  -2.17850    91    90    84    30
 C    -2.40020  -3.26570   1.42050    92    93    94    78
 C    -1.42870  -3.85510   0.69480    93    63    92    31
 C    -3.52170  -2.88890   0.69690    94    88    92    34
