    94
C94-C1-80                                                                       
 C     4.34710  -0.52580   1.29890     1     2     7    59
 C     4.36320   0.84750   1.22500     2     1     3     4
 C     4.42010   1.39880  -0.03820     3     2    10    58
 C     3.59720   1.51640   2.16670     4     8     5     2
 C     2.85840   0.84880   3.12990     5     6     4    19
 C     2.86410  -0.52080   3.24690     6     5    26     7
 C     3.65520  -1.18360   2.29040     7    65     1     6
 C     2.94090   2.68180   1.86490     8     4     9    12
 C     3.02000   3.23670   0.60940     9    11    10     8
 C     3.75500   2.57560  -0.34240    10     9    30     3
 C     1.89200   3.87140   0.17900    11     9    15    28
 C     1.78120   2.73140   2.62880    12    19    14     8
 C    -0.63630   2.96960   2.67740    13    14    17    22
 C     0.64160   3.40260   2.22410    14    12    15    13
 C     0.76470   4.00070   0.96700    15    41    11    14
 C    -2.93190   2.56000   1.96280    16    43    23    17
 C    -1.76800   3.31870   1.85210    17    16    40    13
 C     0.51900   1.06960   3.85080    18    19    24    22
 C     1.72440   1.60230   3.41020    19    12    18     5
 C    -1.86960  -0.34710   3.67240    20    27    21    83
 C    -1.91560   1.02870   3.49820    21    23    20    22
 C    -0.70410   1.77760   3.52360    22    21    18    13
 C    -3.00050   1.43030   2.74960    23    21    16    88
 C     0.53660  -0.35150   4.04670    24    27    18    26
 C     1.45480  -2.43180   3.22170    25    91    64    26
 C     1.69680  -1.13890   3.72090    26     6    25    24
 C    -0.69450  -0.99080   3.92670    27    20    94    24
 C     1.47730   3.82020  -1.14460    28    33    29    11
 C     2.13830   3.09050  -2.10180    29    28    30    37
 C     3.33030   2.50830  -1.65600    30    31    10    29
 C     3.77910   1.32040  -2.13300    31    32    30    58
 C     3.06230   0.71020  -3.07510    32    31    45    38
 C     0.13330   3.98700  -1.16520    33    28    35    41
 C    -1.97320   3.28940  -1.76610    34    35    47    39
 C    -0.66920   3.42260  -2.15310    35    34    33    36
 C    -0.10180   2.54130  -3.12050    36    35    37    49
 C     1.33500   2.42570  -3.08470    37    38    29    36
 C     1.87390   1.23920  -3.55800    38    51    37    32
 C    -2.43530   3.58990  -0.47550    39    42    40    34
 C    -1.56440   3.90490   0.55920    40    41    39    17
 C    -0.30510   4.16990   0.14980    41    40    15    33
 C    -3.55520   2.87460  -0.27890    42    39    43    76
 C    -3.83710   2.38040   0.94570    43    42    80    16
 C     1.24050  -2.07570  -3.47550    44    46    52    54
 C     3.00850  -0.65390  -3.09540    45    46    32    56
 C     1.84090  -0.93120  -3.72260    46    44    45    51
 C    -2.79270   2.31760  -2.29590    47    76    34    48
 C    -2.31050   1.32770  -3.17580    48    47    49    68
 C    -0.94400   1.43470  -3.61460    49    50    48    36
 C    -0.30150   0.22020  -4.02380    50    51    53    49
 C     1.09660   0.20240  -3.98690    51    38    46    50
 C    -0.10690  -2.14660  -3.58110    52    44    71    53
 C    -0.95260  -1.04400  -3.86740    53    69    52    50
 C     1.72990  -2.94780  -2.52450    54    67    44    55
 C     2.87970  -2.68240  -1.78550    55    54    61    56
 C     3.60350  -1.47910  -2.10980    56    57    45    55
 C     4.34490  -0.79950  -1.11570    57    59    58    56
 C     4.42710   0.59610  -1.16820    58    31     3    57
 C     4.33220  -1.33510   0.15400    59    57    62     1
 C     1.68230  -3.88910   0.04070    60    63    66    61
 C     2.86210  -3.20180  -0.46260    61    62    55    60
 C     3.63790  -2.48630   0.46160    62    65    59    61
 C     1.41490  -3.76150   1.40680    63    64    90    60
 C     2.21440  -3.01050   2.24030    64    65    25    63
 C     3.29400  -2.39630   1.78140    65    64     7    62
 C     0.52420  -4.09580  -0.74980    66    67    60    74
 C     0.63270  -3.62480  -2.05540    67    71    54    66
 C    -2.98100   0.05100  -3.05980    68    69    78    48
 C    -2.26410  -1.12870  -3.36270    69    53    68    72
 C    -1.65990  -3.22810  -2.25070    70    71    72    73
 C    -0.45230  -3.17800  -2.76140    71    70    52    67
 C    -2.57590  -2.27640  -2.58130    72    79    70    69
 C    -1.87120  -3.70600  -0.98130    73    70    84    74
 C    -0.81000  -4.11990  -0.17470    74    73    89    66
 C    -4.39470   0.93040  -1.27490    75    76    78    82
 C    -3.80550   2.12630  -1.39030    76    75    42    47
 C    -4.19590  -1.21920  -1.32400    77    79    81    78
 C    -4.00360  -0.08200  -2.08080    78    75    77    68
 C    -3.46380  -2.29190  -1.55250    79    77    72    84
 C    -4.42400   1.16460   1.07380    80    88    43    82
 C    -4.55390  -0.91580  -0.03020    81    82    77    86
 C    -4.72690   0.43650  -0.02950    82    80    81    75
 C    -2.73940  -1.24650   3.02480    83    87    93    20
 C    -3.02320  -3.10750  -0.52920    84    73    79    85
 C    -3.26030  -2.80270   0.81060    85    84    92    86
 C    -4.06060  -1.63720   1.08080    86    81    87    85
 C    -3.76270  -0.83450   2.21890    87    83    88    86
 C    -3.92460   0.54530   2.17180    88    80    87    23
 C    -1.02590  -3.89520   1.20590    89    90    74    92
 C     0.14450  -3.74480   1.94300    90    91    63    89
 C     0.21400  -2.94640   3.05750    91    94    25    90
 C    -2.22110  -3.22040   1.68350    92    93    85    89
 C    -2.04410  -2.40950   2.81500    93    94    83    92
 C    -0.85060  -2.26490   3.43960    94    91    93    27
