    94
C94-C1-101                                                                      
 C    -2.99800   3.11590   0.34030     1     2     5    57
 C    -3.87520   2.08760   0.50310     2     1    53    15
 C    -0.61340   4.28980  -0.36120     3     4    11    58
 C    -1.44970   3.88700  -1.31610     4     3     5     7
 C    -2.62900   3.31990  -0.98980     5     4    13     1
 C     0.73260   2.21760  -3.49360     6     8    93    19
 C    -0.96970   3.38180  -2.48250     7     4     8    18
 C     0.39210   3.28770  -2.71580     8     6     7     9
 C     1.32560   3.72700  -1.74960     9    11     8    10
 C     2.58800   3.05510  -1.60420    10    12    92     9
 C     0.73560   4.25070  -0.57900    11    64     3     9
 C     3.14100   3.02560  -0.32090    12    76    63    10
 C    -2.95170   2.44400  -2.02020    13    14    18     5
 C    -3.74480   1.35110  -1.83810    14    13    15    22
 C    -4.29300   1.26100  -0.55320    15    16    14     2
 C    -4.64340   0.08330  -0.00560    16    15    17    26
 C    -4.43380  -1.05240  -0.70830    17    16    27    23
 C    -1.90660   2.44750  -2.91060    18    13    20     7
 C    -0.21090   1.26780  -3.93070    19    31    20     6
 C    -1.55890   1.31060  -3.62120    20    19    18    21
 C    -2.28930   0.09430  -3.44880    21    20    22    33
 C    -3.43700   0.15220  -2.57000    22    23    14    21
 C    -3.82560  -1.03130  -1.93960    23    17    35    22
 C    -4.02070  -0.99710   1.96080    24    26    39    25
 C    -3.83130  -2.16140   1.28540    25    27    24    47
 C    -4.42150   0.13120   1.33850    26    24    16    53
 C    -4.04280  -2.18070  -0.05050    27    28    25    17
 C    -3.22700  -2.89680  -0.84780    28    27    29    35
 C    -2.20220  -3.67970  -0.31610    29    30    28    46
 C    -1.18270  -3.88330  -1.19870    30    48    29    36
 C     0.44060   0.09000  -4.12010    31    19    86    32
 C    -0.17120  -1.15540  -3.97150    32    31    89    33
 C    -1.56880  -1.16960  -3.61760    33    34    32    21
 C    -2.01450  -2.30510  -2.87140    34    35    36    33
 C    -3.11480  -2.20260  -2.06200    35    34    23    28
 C    -1.09230  -3.25240  -2.44590    36    90    34    30
 C    -1.32210   0.22000   3.87970    37    38    54    43
 C    -2.57150   0.31260   3.34650    38    37    39    52
 C    -3.09410  -0.91510   2.94110    39    24    38    40
 C    -2.33780  -2.09280   2.90090    40    42    47    39
 C    -0.11260  -3.05200   2.73290    41    42    45    50
 C    -1.04720  -2.16180   3.34860    42    40    43    41
 C    -0.59510  -0.97740   3.92430    43    69    42    37
 C     2.16590  -3.16650   1.91360    44    51    78    45
 C     1.27920  -2.71830   2.89820    45    44    68    41
 C    -1.91070  -3.64130   1.09070    46    47    29    50
 C    -2.77680  -2.84240   1.83140    47    25    40    46
 C     0.07860  -4.17000  -0.76880    48    30    82    49
 C     0.43320  -4.14690   0.58330    49    51    48    50
 C    -0.55480  -3.79980   1.55140    50    49    46    41
 C     1.76270  -3.83450   0.79380    51    44    49    85
 C    -2.93670   1.52280   2.68130    52    53    38    56
 C    -3.89200   1.35110   1.66930    53    26     2    52
 C    -0.42810   1.26330   3.85290    54    37    65    55
 C    -0.68390   2.47460   3.20030    55    54    60    56
 C    -1.98370   2.59850   2.55920    56    57    52    55
 C    -2.07080   3.42690   1.38210    57    58     1    56
 C    -0.90010   4.05850   0.97220    58    61     3    57
 C     1.80090   2.58780   2.90370    59    67    62    60
 C     0.48750   3.14860   2.72720    60    61    55    59
 C     0.30750   3.94420   1.60240    61    58    64    60
 C     2.75900   2.83760   1.88950    62    63    73    59
 C     2.47430   3.55410   0.77390    63    64    62    12
 C     1.29010   4.12430   0.64820    64    63    11    61
 C     0.83270   0.71930   3.99550    65    67    54    69
 C     2.99430   0.49620   3.18720    66    72    70    67
 C     1.96540   1.35340   3.55360    67    65    66    59
 C     1.69390  -1.52350   3.56530    68    69    70    45
 C     0.71680  -0.66900   4.01650    69    43    68    65
 C     2.86870  -0.88120   3.18950    70    79    66    68
 C     4.23390  -0.33100   1.50040    71    72    79    74
 C     3.85650   0.80000   2.16070    72    73    71    66
 C     3.72410   1.94750   1.50680    73    72    62    76
 C     4.45860  -0.36710   0.10630    74    71    81    75
 C     4.27310   0.87770  -0.60830    75    76    91    74
 C     3.93780   2.00450   0.14490    76    12    73    75
 C     3.59470  -2.64380   0.25580    77    78    85    81
 C     3.32610  -2.49020   1.58310    78    79    77    44
 C     3.66580  -1.36560   2.19670    79    78    70    71
 C     3.72600  -1.58240  -1.81990    80    81    94    83
 C     4.15570  -1.60360  -0.51420    81    80    77    74
 C     0.95710  -3.81770  -1.78370    82    84    90    48
 C     2.80950  -2.51010  -2.32190    83    84    88    80
 C     2.25870  -3.48600  -1.52980    84    85    82    83
 C     2.65940  -3.52880  -0.23070    85    84    77    51
 C     1.76660   0.33750  -3.82840    86    87    93    31
 C     2.55770  -0.64490  -3.41520    87    86    88    94
 C     2.06260  -1.90100  -3.30830    88    87    83    89
 C     0.71920  -2.19560  -3.56640    89    90    88    32
 C     0.21820  -3.20880  -2.78760    90    36    89    82
 C     3.77090   0.87260  -1.94440    91    94    75    92
 C     2.93010   1.95100  -2.43010    92    93    10    91
 C     1.95630   1.60940  -3.38280    93    86     6    92
 C     3.55070  -0.39550  -2.49930    94    87    80    91
