    94
C94-C2-89                                                                       
 C    -1.39500   2.29070   3.04450     1     7    60     2
 C    -2.07090   1.09400   3.26070     2     1    58    10
 C    -1.79710  -1.34950   3.23840     3     4    10    14
 C    -3.08540  -1.36670   2.63300     4     5    59     3
 C    -3.49420  -2.34430   1.76780     5     6     4    23
 C    -2.65250  -3.32840   1.47160     6     5    15    24
 C    -0.05560   2.42650   3.16980     7     1     8    66
 C     0.75170   1.37000   3.53570     8    20     7     9
 C     0.18120   0.05970   3.70680     9     8    10    12
 C    -1.25820  -0.07180   3.58090    10     3     9     2
 C     2.44450  -0.79670   3.11440    11    19    16    12
 C     1.06990  -1.07330   3.46000    12    11    13     9
 C     0.49980  -2.33640   3.03600    13    14    12    18
 C    -0.92110  -2.45440   2.95040    14    15    13     3
 C    -1.42580  -3.42040   2.04920    15     6    29    14
 C     3.19250  -1.69450   2.36480    16    17    11    94
 C     2.63190  -2.86130   1.92680    17    16    89    18
 C     1.31720  -3.22270   2.21580    18    17    28    13
 C     2.90300   0.50140   2.96860    19    20    11    92
 C     2.06070   1.55500   3.15820    20    19     8    67
 C    -4.18940  -2.22400  -0.46780    21    22    33    23
 C    -3.28650  -3.18730  -0.77890    22    24    21    41
 C    -4.33190  -1.80960   0.82760    23    49    21     5
 C    -2.57540  -3.79280   0.18720    24    25    22     6
 C    -1.33460  -4.22200  -0.02620    25    24    29    26
 C    -0.70700  -4.03450  -1.25970    26    27    25    40
 C     0.63230  -4.08460  -1.19610    27    26    43    30
 C     0.70730  -4.05140   1.22760    28    29    30    18
 C    -0.62800  -4.10920   1.17190    29    28    15    25
 C     1.34660  -4.22260   0.00080    30    90    28    27
 C    -3.88880   0.90870  -2.06370    31    50    32    36
 C    -4.51280   0.02170  -1.21280    32    31    33    48
 C    -4.18350  -1.29470  -1.46460    33    21    32    34
 C    -3.18760  -1.68190  -2.37810    34    41    35    33
 C    -2.44720  -0.77540  -3.12060    35    36    34    46
 C    -2.89100   0.52450  -2.96420    36    38    35    31
 C    -0.74370   1.39890  -3.52590    37    38    39    47
 C    -2.05550   1.57960  -3.14790    38    36    37    53
 C     0.05750   2.45650  -3.15010    39    87    37    55
 C    -1.32700  -3.21060  -2.24290    40    41    26    45
 C    -2.63720  -2.85400  -1.95430    41    34    22    40
 C     1.25780  -0.04780  -3.57670    42    85    47    86
 C     1.43200  -3.39720  -2.07150    43    82    27    44
 C     0.91480  -2.43070  -2.96820    44    43    45    85
 C    -0.50790  -2.31710  -3.05290    45    44    46    40
 C    -1.07290  -1.04840  -3.47070    46    35    45    47
 C    -0.18390   0.08350  -3.70600    47    37    42    46
 C    -4.73450   0.43650   0.13520    48    52    49    32
 C    -4.54310  -0.51240   1.13020    49    23    48    59
 C    -3.60080   2.18930  -1.69660    50    51    53    31
 C    -3.83470   2.60630  -0.43720    51    50    62    52
 C    -4.33980   1.71550   0.47930    52    51    48    57
 C    -2.49920   2.63720  -2.35440    53    50    54    38
 C    -1.63400   3.57640  -1.82050    54    55    53    61
 C    -0.36350   3.49570  -2.30300    55    54    69    39
 C    -2.91060   3.08550   1.45100    56    60    57    62
 C    -3.69840   1.99780   1.67580    57    56    52    58
 C    -3.32050   0.99690   2.58240    58    59    57     2
 C    -3.80070  -0.23620   2.28940    59    58     4    49
 C    -1.79770   3.25680   2.14490    60    56    63     1
 C    -1.81500   4.02830  -0.48970    61    62    54    64
 C    -2.94300   3.47510   0.13950    62    56    51    61
 C    -0.71530   3.90440   1.62960    63    60    66    64
 C    -0.64880   4.32740   0.28830    64    63    70    61
 C     1.63900   3.55980   1.84490    65    66    67    68
 C     0.37240   3.47190   2.33050    66    65    63     7
 C     2.50920   2.61520   2.36910    67    74    65    20
 C     1.81710   4.02440   0.51700    68    71    65    70
 C     0.73050   3.92390  -1.60870    69    77    55    70
 C     0.65620   4.32910  -0.26670    70    69    64    68
 C     2.94920   3.47230  -0.11140    71    81    73    68
 C     4.33600   1.71550  -0.45060    72    73    76    80
 C     3.84110   2.61000   0.47080    73    74    71    72
 C     3.61650   2.17280   1.72330    74    73    67    92
 C     4.53160  -0.51000  -1.12180    75    91    76    78
 C     4.72870   0.43270  -0.11560    76    72    75    93
 C     1.81070   3.27860  -2.12970    77    81    69    87
 C     3.79210  -0.22510  -2.28100    78    79    84    75
 C     3.31530   1.01350  -2.56280    79    78    80    86
 C     3.69220   2.00560  -1.64780    80    81    72    79
 C     2.91660   3.09430  -1.42700    81    77    80    71
 C     2.66130  -3.32020  -1.49430    82    83    43    90
 C     3.49780  -2.32780  -1.78030    83    82    91    84
 C     3.08210  -1.35090  -2.64540    84    83    78    85
 C     1.79620  -1.32850  -3.24590    85    84    42    44
 C     2.06710   1.11860  -3.24690    86    87    79    42
 C     1.39630   2.31670  -3.03040    87    39    77    86
 C     4.20240  -2.24010   0.46350    88    89    94    91
 C     3.29250  -3.20150   0.76060    89    90    88    17
 C     2.58920  -3.80000  -0.21380    90    30    89    82
 C     4.33480  -1.81750  -0.82920    91    75    83    88
 C     3.90800   0.89270   2.08030    92    74    93    19
 C     4.52680   0.00070   1.23050    93    94    92    76
 C     4.20670  -1.31550   1.46400    94    88    93    16
