    94
C94-C1-25                                                                       
 C     2.05000   3.80340   1.07940     1    10    54     2
 C     0.73810   3.81700   1.60630     2     3     1    11
 C    -0.29240   4.17530   0.72560     3     4     2    55
 C    -1.61730   3.81700   0.99580     4     3     5     7
 C    -2.49690   3.71930  -0.10980     5     6    43     4
 C    -3.63300   3.00930  -0.13340     6     9     5    34
 C    -1.92150   2.94500   2.10010     7     8    12     4
 C    -3.13050   2.25390   2.01370     8    25     9     7
 C    -4.02750   2.33480   0.95260     9     6    16     8
 C     3.05940   3.06650   1.58650    10    13     1    71
 C     0.44260   2.88710   2.66630    11    14    12     2
 C    -0.86250   2.36340   2.87720    12    11     7    23
 C     2.79610   2.22310   2.60060    13    10    92    14
 C     1.51780   2.10030   3.07790    14    13    21    11
 C    -4.28950  -0.93560   1.68660    15    17    19    30
 C    -4.71370   1.18150   0.83030    16     9    17    32
 C    -4.30940   0.38890   1.85130    17    15    16    25
 C    -3.16810  -2.76260   1.54360    18    20    19    35
 C    -3.34470  -1.66150   2.32870    19    15    18    28
 C    -2.06080  -3.45420   1.64190    20    18    41    29
 C     1.38260   0.78630   3.50030    21    22    14    84
 C     0.15670   0.16580   3.62860    22    21    26    23
 C    -1.02190   0.98510   3.40810    23    24    22    12
 C    -2.25730   0.30380   3.20890    24    25    23    28
 C    -3.29930   1.00090   2.57400    25     8    17    24
 C     0.16820  -1.27690   3.48740    26    27    22    86
 C    -1.09240  -1.87940   3.21530    27    29    28    26
 C    -2.29200  -1.12350   3.11900    28    27    19    24
 C    -1.05440  -3.08800   2.49680    29    89    20    27
 C    -4.56120  -1.50410   0.45500    30    35    31    15
 C    -4.77200  -0.69460  -0.59950    31    30    32    36
 C    -4.91010   0.63660  -0.42930    32    31    33    16
 C    -4.33760   1.22770  -1.50740    33    34    32    45
 C    -3.76040   2.42420  -1.38380    34    33    44     6
 C    -3.81530  -2.61640   0.33010    35    30    18    38
 C    -4.04280  -0.94750  -1.76070    36    45    37    31
 C    -3.23150  -2.05690  -1.93930    37    36    47    38
 C    -3.17900  -3.01920  -0.85880    38    39    35    37
 C    -2.06330  -3.83940  -0.70930    39    40    38    41
 C    -1.08840  -3.79150  -1.66870    40    39    83    46
 C    -1.54590  -4.10080   0.56780    41    20    80    39
 C    -0.74440   3.87370  -1.61980    42    43    55    53
 C    -2.00080   3.64940  -1.39360    43    42    44     5
 C    -2.68610   2.73830  -2.13390    44    34    43    50
 C    -3.73980   0.28200  -2.32390    45    33    36    49
 C    -1.09970  -2.82290  -2.66300    46    61    47    40
 C    -2.10070  -1.87790  -2.81010    47    46    37    48
 C    -1.70750  -0.57440  -3.35500    48    49    47    51
 C    -2.56350   0.53000  -3.07220    49    45    50    48
 C    -2.01950   1.84640  -3.01300    50    44    52    49
 C    -0.29440  -0.31940  -3.66360    51    62    63    48
 C    -0.63550   2.06810  -3.24050    52    53    50    63
 C    -0.05490   3.16040  -2.57570    53    58    42    52
 C     2.32890   3.87120  -0.27120    54    56    59     1
 C     0.08900   4.26460  -0.63510    55    56    42     3
 C     1.32560   4.01710  -1.09920    56    54    55    58
 C     2.22600   2.35950  -2.60610    57    58    66    60
 C     1.26400   3.28330  -2.26510    58    53    57    56
 C     3.39360   3.08900  -0.59530    59    54    71    60
 C     3.40030   2.28640  -1.76510    60    68    59    57
 C     0.19900  -2.61450  -3.03050    61    46    62    76
 C     0.63090  -1.39350  -3.52330    62    61    64    51
 C     0.26840   1.02690  -3.58440    63    52    51    66
 C     1.98250  -1.16320  -3.30310    64    65    62    79
 C     2.49940   0.09700  -3.18350    65    64    66    67
 C     1.69960   1.21810  -3.30360    66    65    57    63
 C     3.65500   0.02430  -2.40850    67    68    72    65
 C     4.11450   1.07820  -1.65170    68    67    60    69
 C     4.70110   0.70510  -0.42240    69    70    75    68
 C     4.56290   1.49320   0.68330    70    71    69    91
 C     3.92720   2.67180   0.58880    71    70    59    10
 C     3.80650  -1.29440  -2.01780    72    79    67    74
 C     3.73200  -2.71800  -0.16030    73    77    74    93
 C     4.32360  -1.63510  -0.77470    74    75    73    72
 C     4.72690  -0.60900   0.02350    75    74    69    90
 C     1.01710  -3.47090  -2.30340    76    83    78    61
 C     2.80340  -3.50790  -0.78740    77    73    81    78
 C     2.32820  -3.17680  -2.04940    78    79    76    77
 C     2.81110  -2.03120  -2.60410    79    78    72    64
 C    -0.22740  -4.31330   0.83870    80    82    41    89
 C     1.96600  -4.05830   0.14970    81    82    77    87
 C     0.69080  -4.43510  -0.15470    82    80    81    83
 C     0.22140  -4.14430  -1.42130    83    76    40    82
 C     2.57600   0.12710   3.22530    84    92    85    21
 C     2.63490  -1.22750   2.93610    85    84    86    94
 C     1.41890  -1.96290   3.08700    86    85    88    26
 C     2.29690  -3.47070   1.37360    87    93    88    81
 C     1.32000  -3.17050   2.32530    88    89    87    86
 C     0.08370  -3.67290   2.04080    89    29    88    80
 C     4.44610  -0.61130   1.39560    90    91    75    94
 C     4.36290   0.68440   1.76880    91    90    92    70
 C     3.44430   1.04200   2.69370    92    13    91    84
 C     3.40030  -2.69210   1.19390    93    87    94    73
 C     3.65690  -1.60630   1.98690    94    93    90    85
