    94
C94-C1-77                                                                       
 C    -1.97660  -3.45570  -1.67390     1     2     8    61
 C    -0.67080  -3.75950  -1.82650     2     1     3     7
 C    -0.07490  -4.29140  -0.68130     3     4    58     2
 C     1.25330  -4.22710  -0.47680     4     5     3    26
 C     2.03740  -3.66630  -1.40390     5     4    12     6
 C     1.47720  -3.04020  -2.49970     6    23     5     7
 C     0.10970  -3.00350  -2.75250     7     6     2    19
 C    -2.57320  -2.45470  -2.40850     8    63     1     9
 C    -1.83420  -1.57600  -3.24140     9     8    18    19
 C     4.20630  -1.71690   0.60140    10    27    16    11
 C     3.54790  -2.90730   0.30350    11    10    12    25
 C     3.18840  -3.04160  -1.03830    12     5    13    11
 C     3.42140  -2.06260  -1.97180    13    15    12    23
 C     3.74530   0.19380  -2.33300    14    15    39    24
 C     4.11260  -0.92810  -1.65800    15    14    13    16
 C     4.50880  -0.75740  -0.34290    16    10    15    38
 C    -3.53200   0.03890  -2.59420    17    64    89    18
 C    -2.35090  -0.24640  -3.33780    18    92    17     9
 C    -0.43980  -1.83410  -3.42410    19     9     7    21
 C    -0.06870   0.63270  -3.81460    20    92    93    21
 C     0.45870  -0.73090  -3.75450    21    22    19    20
 C     1.85990  -0.89700  -3.46770    22    23    24    21
 C     2.32940  -2.04330  -2.85350    23     6    22    13
 C     2.65510   0.21110  -3.21900    24    94    22    14
 C     2.64930  -3.41290   1.27390    25    26    29    11
 C     1.52330  -4.08530   0.85490    26     4    25    43
 C     3.98830  -1.02720   1.76330    27    28    30    10
 C     3.08860  -1.50510   2.63890    28    27    29    31
 C     2.42470  -2.66990   2.41860    29    28    25    41
 C     4.13320   0.32080   1.58590    30    27    38    33
 C     2.30600  -0.64500   3.35520    31    28    47    32
 C     2.42450   0.74110   3.25430    32    31    54    33
 C     3.39360   1.26730   2.30680    33    30    36    32
 C     2.74990   3.55440  -0.47570    34    80    88    35
 C     3.57110   2.70300   0.28760    35    34    40    36
 C     3.16100   2.50900   1.66020    36    37    33    35
 C     2.03540   3.21360   2.08880    37    81    53    36
 C     4.50340   0.49810   0.26270    38    40    30    16
 C     3.84670   1.44480  -1.76460    39    84    14    40
 C     4.19500   1.65160  -0.41920    40    38    39    35
 C     1.18700  -2.55600   3.03590    41    47    42    29
 C     0.05870  -3.23220   2.60520    42    41    43    44
 C     0.29250  -4.03620   1.49050    43    58    26    42
 C    -1.22780  -2.66270   2.82360    44    42    45    49
 C    -2.27690  -3.05100   1.90650    45    46    57    44
 C    -3.37960  -2.20720   1.76310    46    52    59    45
 C     1.11430  -1.31160   3.62510    47    41    48    31
 C    -0.08670  -0.67470   3.85760    48    47    55    49
 C    -1.31100  -1.36340   3.48880    49    51    48    44
 C    -2.33700   0.81880   3.28850    50    56    51    66
 C    -2.45810  -0.55950   3.23270    51    52    50    49
 C    -3.46580  -0.99010   2.39950    52    46    51    68
 C     1.14260   2.70570   3.01300    53    74    37    54
 C     1.24830   1.43870   3.58600    54    53    32    55
 C     0.01190   0.74980   3.89470    55    56    48    54
 C    -1.16550   1.43390   3.61190    56    50    75    55
 C    -1.96540  -3.82490   0.74020    57    58    61    45
 C    -0.69150  -4.25310   0.56570    58    57    43     3
 C    -4.11930  -2.09670   0.60780    59    60    62    46
 C    -3.70160  -2.73580  -0.50730    60    61    59    63
 C    -2.65140  -3.56080  -0.44600    61    60    57     1
 C    -4.61960  -0.83390   0.51540    62    65    68    59
 C    -3.69310  -2.08800  -1.70630    63    64    60     8
 C    -4.17270  -0.84830  -1.78740    64    63    17    65
 C    -4.67670  -0.20370  -0.68280    65    62    71    64
 C    -3.07830   1.69220   2.46610    66    67    78    50
 C    -3.99390   1.24480   1.55430    67    66    68    70
 C    -4.23490  -0.12330   1.60980    68    62    67    52
 C    -3.18700   3.05250   0.06490    69    72    77    70
 C    -4.06100   1.93830   0.30620    70    71    67    69
 C    -4.39120   1.11820  -0.79000    71    65    89    70
 C    -2.69420   3.17830  -1.24760    72    82    90    69
 C    -0.00660   4.07550   1.64150    73    74    81    76
 C    -0.07300   3.28680   2.74370    74    75    73    53
 C    -1.20420   2.66850   3.03490    75    74    56    78
 C    -1.08230   4.20720   0.73390    76    73    83    77
 C    -2.31480   3.55160   1.07220    77    78    69    76
 C    -2.32230   2.81780   2.26540    78    75    66    77
 C     0.66790   4.30540  -0.93560    79    80    87    83
 C     1.65990   4.21390   0.00880    80    81    34    79
 C     1.31300   4.07070   1.28150    81    80    73    37
 C    -1.49200   3.74070  -1.56370    82    72    83    85
 C    -0.68370   4.31580  -0.61950    83    82    79    76
 C     2.92810   2.21830  -2.39770    84    88    39    94
 C    -0.97960   3.06990  -2.68550    85    86    91    82
 C     0.34680   2.95590  -2.94950    86    85    87    93
 C     1.15850   3.67350  -2.06700    87    88    79    86
 C     2.42380   3.28200  -1.78360    88    84    87    34
 C    -3.77190   1.25920  -2.00830    89    90    71    17
 C    -2.93980   2.24820  -2.22330    90    89    72    91
 C    -1.85180   2.08670  -3.04110    91    85    90    92
 C    -1.46740   0.83850  -3.59000    92    91    18    20
 C     0.82340   1.74770  -3.54050    93    94    86    20
 C     2.15380   1.46830  -3.25870    94    24    84    93
