    94
C94-Cs-13                                                                       
 C     4.55960   1.49500  -0.67630     1     8     2     3
 C     3.76970   2.37500  -1.36200     2     4     1    18
 C     4.55850   1.50930   0.69440     3    24    45     1
 C     3.08440   3.30160  -0.68490     4     2     5    46
 C     1.87530   3.69430  -1.14180     5     4    69    16
 C     4.01340  -1.93080  -1.33460     6    11    25     7
 C     4.67040  -0.89300  -0.69410     7     6     8    23
 C     4.55470   0.32380  -1.36440     8     1     7     9
 C     3.72930   0.50850  -2.48950     9    10    18     8
 C     3.02250  -0.50350  -3.06730    10     9    11    21
 C     3.24990  -1.75200  -2.47080    11    13     6    10
 C     1.14170  -2.49730  -3.04600    12    13    34    22
 C     2.28340  -2.70690  -2.43530    13    12    11    28
 C    -0.80790   3.78780  -1.13660    14    73    68    15
 C    -0.20220   3.23240  -2.28530    15    14    16    90
 C     1.21430   3.16200  -2.27710    16     5    15    17
 C     1.90030   2.10950  -2.95080    17    18    16    20
 C     3.19350   1.78090  -2.45930    18     2     9    17
 C    -0.32410   1.20220  -3.64340    19    93    90    20
 C     1.13330   1.08820  -3.59120    20    17    21    19
 C     1.75180  -0.22730  -3.64730    21    22    10    20
 C     0.87850  -1.30660  -3.67550    22    94    12    21
 C     4.67100  -0.89430   0.73080    23    27    24     7
 C     4.55390   0.33470   1.38030    24     3    23    32
 C     3.42350  -2.96760  -0.63710    25    26    28     6
 C     3.42220  -2.96950   0.69350    26    25    38    27
 C     4.01990  -1.92860   1.37650    27    30    26    23
 C     2.31290  -3.43870  -1.29000    28    13    25    36
 C     2.28790  -2.68810   2.47890    29    33    38    30
 C     3.25940  -1.73210   2.51210    30    29    27    31
 C     3.01910  -0.47700   3.08720    31    32    30    42
 C     3.71950   0.53560   2.49660    32    31    44    24
 C     1.14130  -2.46760   3.07740    33    29    39    41
 C    -0.01100  -3.06780  -2.58460    34    86    12    35
 C    -0.10530  -3.77190  -1.36440    35    34    36    61
 C     1.12980  -3.92770  -0.67490    36    37    28    35
 C     1.13340  -3.92500   0.73610    37    36    38    40
 C     2.31680  -3.43800   1.34520    38    29    26    37
 C    -0.01220  -3.04320   2.62150    39    56    33    40
 C    -0.11000  -3.76260   1.40990    40    39    37    62
 C     0.87590  -1.26700   3.68770    41    47    33    42
 C     1.74880  -0.18510   3.65940    42    41    31    51
 C     1.89670   2.13880   2.94360    43    44    51    53
 C     3.19240   1.80930   2.45150    44    45    32    43
 C     3.78140   2.40810   1.36200    45    46     3    44
 C     3.08550   3.32220   0.69010    46    45    54     4
 C    -0.46040  -1.17060   3.74400    47    41    49    56
 C    -2.41430  -0.04840   3.42560    48    64    49    57
 C    -1.09590   0.04520   3.79410    49    48    47    50
 C    -0.32680   1.24250   3.64130    50    49    52    51
 C     1.12660   1.12620   3.59360    51    43    42    50
 C    -1.02630   2.34030   2.99010    52    66    65    50
 C     1.21080   3.18780   2.25590    53    54    66    43
 C     1.87250   3.71300   1.11810    54    46    69    53
 C    -2.26840  -2.34070   2.63500    55    56    57    58
 C    -1.02280  -2.30330   3.13940    56    55    39    47
 C    -3.01920  -1.21110   2.92660    57    85    55    48
 C    -2.49140  -3.07310   1.42800    58    59    55    62
 C    -3.59000  -2.61940   0.69830    59    63    84    58
 C    -2.48850  -3.08020  -1.40090    60    63    88    61
 C    -1.37940  -3.70350  -0.70740    61    35    60    62
 C    -1.38030  -3.69960   0.74660    62    40    58    61
 C    -3.59090  -2.62200  -0.67900    63    59    82    60
 C    -3.09400   1.01620   2.90240    64    48    78    65
 C    -2.42090   2.19970   2.60010    65    64    76    52
 C    -0.20830   3.25360   2.26360    66    67    53    52
 C    -0.80910   3.80000   1.10840    67    75    68    66
 C    -0.09510   4.09540  -0.01430    68    69    67    14
 C     1.19400   4.06340  -0.01320    69    68    54     5
 C    -4.63230   1.12960  -1.09760    70    74    71    79
 C    -3.98570   2.26550  -0.69760    71    70    72    77
 C    -2.94150   2.81330  -1.44470    72    73    71    89
 C    -2.06510   3.53620  -0.70560    73    14    72    75
 C    -4.15660   0.48750  -2.18620    74    70    81    91
 C    -2.07210   3.54970   0.69820    75    67    76    73
 C    -2.95550   2.83580   1.43430    76    75    77    65
 C    -3.99850   2.27270   0.70360    77    80    76    71
 C    -4.16860   0.51430   2.19060    78    80    85    64
 C    -5.05420   0.42140   0.00010    79    80    70    83
 C    -4.64700   1.13960   1.09060    80    78    77    79
 C    -4.08370  -0.87740  -2.18290    81    87    82    74
 C    -4.42610  -1.58700  -1.07840    82    81    83    63
 C    -4.93250  -0.95040   0.01320    83    84    82    79
 C    -4.42740  -1.58310   1.10700    84    85    83    59
 C    -4.08870  -0.85560   2.19810    85    57    84    78
 C    -1.01570  -2.32830  -3.11560    86    88    34    94
 C    -3.01330  -1.23270  -2.91950    87    81    88    92
 C    -2.26480  -2.35850  -2.61350    88    86    87    60
 C    -2.41780   2.16800  -2.61020    89    91    72    90
 C    -1.02220   2.31060  -2.99860    90    15    89    19
 C    -3.08780   0.98380  -2.90530    91    92    74    89
 C    -2.41320  -0.07470  -3.43580    92    91    93    87
 C    -1.09480   0.00440  -3.79900    93    94    92    19
 C    -0.45580  -1.20570  -3.74430    94    22    93    86
