    94
C94-C3-110                                                                      
 C     3.45460   1.51050  -2.22130     1     6     2    57
 C     3.64950   2.16940  -1.03050     2     1     3     9
 C     2.77970   3.25860  -0.84360     3     4    56     2
 C     2.35530   3.63990   0.38190     4     5     3    27
 C     2.81770   3.01590   1.45730     5     4    18    10
 C     3.67890   0.16360  -2.33530     6     1    62     7
 C     4.09010  -0.64770  -1.26570     7     6    14     8
 C     4.30180  -0.00550   0.01300     8     7     9    12
 C     4.08820   1.42380   0.10230     9    10     2     8
 C     3.67310   1.93360   1.34240    10    24     5     9
 C     3.66980  -2.12690   1.03100    11    13    87    12
 C     4.08690  -0.79600   1.20810    12    11    23     8
 C     3.44710  -2.70040  -0.19310    13    11    14    94
 C     3.64530  -2.00040  -1.36050    14    13    15     7
 C     2.78250  -2.38160  -2.40320    15    61    91    14
 C    -0.12990   2.60490   3.34390    16    28    17    22
 C     0.70020   3.35960   2.54490    17    16    18    26
 C     2.02650   2.89700   2.54790    18     5    19    17
 C     2.44750   1.76760   3.21040    19    21    18    24
 C     1.75460  -0.31250   3.97020    20    21    25    37
 C     1.56940   1.03710   3.96130    21    20    22    19
 C     0.28010   1.47270   4.02730    22    21    39    16
 C     3.64860  -0.19140   2.42490    23    24    25    12
 C     3.45600   1.16570   2.45280    24    10    23    19
 C     2.77690  -0.90930   3.26480    25    88    20    23
 C     0.14670   3.95590   1.37310    26    27    17    30
 C     1.05240   4.10110   0.32290    27    47     4    26
 C    -1.45270   2.46770   3.06380    28    16    29    32
 C    -2.04560   3.07120   1.95890    29    31    28    30
 C    -1.24290   3.79980   1.02650    30    29    26    45
 C    -3.18760   2.43250   1.55280    31    29    43    34
 C    -1.87400   1.23530   3.58180    32    33    39    28
 C    -2.93330   0.53550   3.09080    33    32    34    41
 C    -3.65050   1.23600   2.12140    34    36    33    31
 C    -4.37080  -0.73970   1.13800    35    36    76    42
 C    -4.37980   0.61150   1.17850    36    34    35    49
 C     0.67160  -1.19660   4.02170    37    80    38    20
 C    -0.65000  -0.78560   4.07190    38    37    39    40
 C    -0.78950   0.60330   4.11190    39    32    22    38
 C    -1.66150  -1.58490   3.46180    40    38    41    82
 C    -2.85630  -0.89830   3.03110    41    42    33    40
 C    -3.61030  -1.47350   2.00850    42    35    85    41
 C    -3.60020   2.46850   0.23760    43    49    31    44
 C    -2.83840   3.06550  -0.76890    44    43    52    45
 C    -1.64600   3.77910  -0.38230    45    46    44    30
 C    -0.62930   3.90450  -1.37520    46    47    48    45
 C     0.69030   4.07170  -0.99090    47    27    46    56
 C    -0.76220   3.23930  -2.59690    48    53    54    46
 C    -4.37300   1.34960   0.03630    49    50    36    43
 C    -4.37310   0.72720  -1.16030    50    51    49    77
 C    -3.64210   1.22420  -2.17470    51    50    52    63
 C    -2.91350   2.40420  -2.04370    52    53    51    44
 C    -1.84980   2.47210  -2.88900    53    52    48    65
 C     0.30650   2.72680  -3.30890    54    55    48    58
 C     1.59240   2.89410  -2.87820    55    56    54    57
 C     1.77060   3.58540  -1.72510    56    55     3    47
 C     2.45250   1.86040  -3.12990    57    55    60     1
 C    -0.11320   1.57960  -3.95960    58    65    59    54
 C     0.71510   0.50850  -4.19950    59    58    60    67
 C     2.04010   0.72450  -3.78490    60    62    57    59
 C     2.35790  -1.51590  -3.34980    61    62    15    68
 C     2.83250  -0.27780  -3.33910    62    61    60     6
 C    -3.17970   0.12610  -2.92240    63    64    69    51
 C    -2.03420   0.15570  -3.67610    64    63    65    66
 C    -1.43880   1.41200  -3.70900    65    58    64    53
 C    -1.23390  -1.01800  -3.82800    66    64    67    71
 C     0.16240  -0.80600  -4.13050    67    68    59    66
 C     1.06020  -1.79270  -3.72970    68    74    61    67
 C    -3.59680  -1.02010  -2.27830    69    77    63    70
 C    -2.83640  -2.19370  -2.29130    70    69    79    71
 C    -1.64320  -2.22450  -3.10250    71    73    70    66
 C    -0.77420  -3.87660  -1.53200    72    78    92    73
 C    -0.62770  -3.15110  -2.71760    73    74    72    71
 C     0.69360  -2.91370  -3.04710    74    68    73    91
 C    -3.65130  -2.48690   0.00510    75    76    79    85
 C    -4.38340  -1.35490  -0.07800    76    77    75    35
 C    -4.37320  -0.63390  -1.21610    77    76    50    69
 C    -1.85800  -3.73780  -0.71630    78    79    72    83
 C    -2.91790  -2.96470  -1.07980    79    78    75    70
 C     1.05220  -2.34690   3.39550    80    37    88    81
 C     0.14600  -3.18200   2.73930    81    80    90    82
 C    -1.25000  -2.81310   2.77350    82    84    81    40
 C    -1.45180  -3.91830   0.61260    83    89    84    78
 C    -2.05470  -3.26410   1.68100    84    85    83    82
 C    -3.19900  -2.59720   1.33300    85    84    42    75
 C     2.03290  -3.65690   1.25720    86    87    94    90
 C     2.82720  -2.77740   1.91190    87    88    86    11
 C     2.35790  -2.16310   2.98470    88    87    25    80
 C    -0.12770  -4.22050   0.58430    89    83    90    92
 C     0.70000  -3.89840   1.63460    90    89    86    81
 C     1.76910  -3.30760  -2.24960    91    93    15    74
 C     0.29730  -4.24360  -0.73310    92    93    89    72
 C     1.58980  -3.96290  -1.07150    93    91    94    92
 C     2.45130  -3.66710  -0.05560    94    93    86    13
