    94
C94-C1-6                                                                        
 C    -0.67810  -3.21890   2.36870     1    28     2    13
 C     0.67600  -3.00570   2.48120     2     1    11     5
 C     2.47800  -1.39540   2.84840     3    10     4     5
 C     3.26010  -2.18100   1.95380     4    63    12     3
 C     1.12780  -1.78110   3.11040     5     3     2     6
 C     0.12110  -0.78160   3.49490     6    27    23     5
 C     4.05050   0.35920   2.21610     7    65    62    10
 C     2.12450   2.20320   2.65510     8    66    20     9
 C     1.86700   0.94000   3.21060     9     8    10    23
 C     2.88130  -0.03560   2.94700    10     3     9     7
 C     1.46040  -3.64620   1.48810    11    12    15     2
 C     2.69710  -3.20080   1.23090    12    11     4    31
 C    -1.28230  -3.91410   1.33290    13    14    18     1
 C    -0.52310  -4.31480   0.32330    14    13    15    41
 C     0.80970  -4.20720   0.39300    15    14    29    11
 C    -3.70740  -1.69170   2.02590    16    17    19    47
 C    -2.76830  -2.60030   2.13270    17    16    18    28
 C    -2.54330  -3.48250   1.12400    18    13    17    46
 C    -3.53200  -0.48190   2.63960    19    90    16    26
 C     1.11890   3.04280   2.24200    20    21     8    77
 C    -0.19690   2.83330   2.51320    21    20    93    22
 C    -0.55780   1.61730   3.22470    22    25    21    23
 C     0.49220   0.62060   3.47440    23     9     6    22
 C    -2.85070   2.08640   2.48290    24    94    89    25
 C    -1.93240   1.24500   3.16250    25    26    24    22
 C    -2.29840  -0.12190   3.26360    26    25    27    19
 C    -1.27560  -1.10300   3.37980    27    28    26     6
 C    -1.60600  -2.35010   2.83870    28     1    17    27
 C     1.27680  -4.00430  -0.89240    29    30    34    15
 C     2.46210  -3.41840  -1.16330    30    29    31    38
 C     3.26210  -3.17980  -0.04700    31    32    30    12
 C     4.24920  -2.28110  -0.02630    32    31    33    63
 C     4.49010  -1.52980  -1.13370    33    50    32    39
 C     0.17290  -3.84140  -1.67860    34    29    41    36
 C    -1.05600  -2.38300  -2.95160    35    36    52    45
 C     0.18790  -2.89920  -2.69680    36    35    34    37
 C     1.35160  -2.13580  -2.96400    37    36    38    54
 C     2.54760  -2.49850  -2.25190    38    39    30    37
 C     3.57530  -1.58290  -2.17630    39    56    38    33
 C    -2.22210  -3.59970  -1.20240    40    45    41    46
 C    -0.97110  -4.12220  -0.94740    41    14    40    34
 C    -4.59800  -0.20500  -1.44170    42    85    43    79
 C    -4.14160  -1.52050  -1.47400    43    44    42    48
 C    -3.13640  -1.74740  -2.40440    44    45    43    81
 C    -2.23020  -2.74920  -2.28350    45    44    40    35
 C    -3.13220  -3.31690  -0.14890    46    18    48    40
 C    -4.46600  -1.57300   0.87910    47    83    16    48
 C    -4.11170  -2.29690  -0.27640    48    47    46    43
 C     4.05390   1.75900  -1.72100    49    51    59    57
 C     4.97510  -0.27170  -0.98450    50    33    51    61
 C     4.33710   0.46800  -1.95350    51    49    50    56
 C    -1.22370  -1.10410  -3.41870    52    35    81    53
 C    -0.14640  -0.22520  -3.60750    53    52    54    71
 C     1.18220  -0.75110  -3.43210    54    55    53    37
 C     2.24350   0.17370  -3.21460    55    56    54    58
 C     3.44680  -0.30320  -2.66660    56    39    51    55
 C     2.87800   2.28070  -2.21550    57    49    69    58
 C     1.93970   1.56250  -2.99130    58    57    68    55
 C     4.37990   2.34470  -0.52450    59    64    49    60
 C     4.86870   1.56410   0.49520    60    61    59    65
 C     5.18550   0.26540   0.27250    61    60    62    50
 C     4.75060  -0.46130   1.36080    62    63     7    61
 C     4.31610  -1.70730   1.21910    63    62     4    32
 C     3.39900   3.24850  -0.29500    64    67    59    69
 C     4.20810   1.61970   1.70410    65    66     7    60
 C     3.23360   2.50620   1.90760    66    65    67     8
 C     2.86500   3.38740   0.94030    67    77    64    66
 C     0.60370   2.04490  -3.02580    68    58    71    74
 C     2.50030   3.27730  -1.33840    69    75    64    57
 C    -1.84370   1.53250  -3.14870    70    72    80    71
 C    -0.47270   1.17250  -3.43270    71    68    70    53
 C    -2.07560   2.68810  -2.40590    72    73    82    70
 C    -1.03690   3.40390  -1.87180    73    74    72    91
 C     0.27770   3.17130  -2.16390    74    73    75    68
 C     1.19780   3.68400  -1.22070    75    69    74    76
 C     0.71820   4.03730   0.09550    76    92    77    75
 C     1.58410   3.72770   1.12040    77    67    76    20
 C    -4.15830   1.96120  -1.52640    78    82    79    84
 C    -4.00750   0.79760  -2.21670    79    78    42    80
 C    -2.88520   0.56810  -3.02470    80    81    79    70
 C    -2.51740  -0.73330  -3.13300    81    80    52    44
 C    -3.18080   2.88440  -1.61590    82    78    86    72
 C    -4.90340  -0.28400   0.88540    83    47    85    90
 C    -4.78490   1.73990  -0.32620    84    85    78    88
 C    -5.05280   0.40390  -0.28260    85    84    83    42
 C    -2.79130   3.59760  -0.52470    86    91    87    82
 C    -3.30980   3.29410   0.68710    87    86    88    94
 C    -4.30720   2.38330   0.79480    88    87    89    84
 C    -4.04480   1.66400   1.92350    89    90    88    24
 C    -4.36220   0.36990   1.98150    90    89    19    83
 C    -1.48840   3.92060  -0.65720    91    86    92    73
 C    -0.61810   4.03810   0.40880    92    76    91    93
 C    -1.10690   3.52220   1.66720    93    94    21    92
 C    -2.42320   3.16170   1.73080    94    93    87    24
