    94
C94-C1-99                                                                       
 C    -3.32760  -2.58530   1.28130     1     2     6    63
 C    -2.22420  -3.24620   1.72200     2     1     3     9
 C    -1.58520  -3.99740   0.73640     3     4    60     2
 C    -0.27840  -4.31690   0.83160     4     5     3    32
 C     0.44560  -3.88680   1.87760     5     4    18    10
 C    -3.75700  -1.42010   1.86760     6     1    65     7
 C    -3.00690  -0.76990   2.86600     7     6    14     8
 C    -1.79210  -1.40220   3.33290     8     9     7    12
 C    -1.45180  -2.68150   2.78180     9    10     2     8
 C    -0.11080  -3.04750   2.81390    10     5    25     9
 C    -0.92450   0.79180   3.80430    11    26    13    12
 C    -0.69870  -0.57610   3.82370    12    11    24     8
 C    -2.08140   1.37580   3.31970    13    14    11    94
 C    -3.13100   0.64560   2.85090    14    13    15     7
 C    -3.87640   1.29000   1.85190    15    66    92    14
 C     3.46440  -2.92430   0.30820    16    33    17    21
 C     2.40950  -3.78580   0.50940    17    16    18    31
 C     1.76810  -3.62570   1.73140    18     5    19    17
 C     2.07440  -2.61780   2.63150    19    20    25    18
 C     3.11440  -1.74760   2.42640    20    19    21    29
 C     3.83340  -1.97190   1.24160    21    23    16    20
 C     4.37190   0.27770   1.05960    22    23    42    30
 C     4.41190  -0.95030   0.55020    23    22    21    36
 C     0.68710  -0.96640   3.76430    24    25    12    28
 C     0.91010  -2.24330   3.27990    25    10    24    19
 C     0.10010   1.70690   3.68980    26    11    87    27
 C     1.44850   1.38220   3.57050    27    26    90    28
 C     1.77840  -0.01250   3.61410    28    27    29    24
 C     2.98720  -0.43040   2.93710    29    30    20    28
 C     3.70510   0.55460   2.23720    30    91    22    29
 C     1.61470  -4.12730  -0.61290    31    32    35    17
 C     0.27930  -4.38660  -0.41710    32     4    31    45
 C     3.75340  -2.39370  -0.92890    33    34    36    16
 C     2.92970  -2.65460  -1.95600    34    33    35    37
 C     1.87990  -3.50230  -1.82010    35    34    31    43
 C     4.31680  -1.16210  -0.80610    36    33    23    39
 C     2.62380  -1.66720  -2.85790    37    34    49    38
 C     3.18680  -0.38930  -2.79290    38    37    56    39
 C     4.10340  -0.11000  -1.71120    39    36    41    38
 C     3.43730   2.18320  -1.76830    40    41    55    86
 C     4.17820   1.19230  -1.16790    41    40    42    39
 C     4.32010   1.35460   0.22220    42    22    83    41
 C     0.88180  -3.08140  -2.68750    43    44    49    35
 C    -0.46350  -3.31960  -2.47420    44    43    45    46
 C    -0.72490  -4.04450  -1.31030    45    60    32    44
 C    -1.43130  -2.39920  -2.96790    46    44    47    51
 C    -2.70660  -2.36450  -2.28390    47    48    59    46
 C    -3.47140  -1.20070  -2.37670    48    61    54    47
 C     1.34040  -1.94060  -3.32270    49    50    43    37
 C     0.47610  -0.97410  -3.79940    50    49    57    51
 C    -0.95050  -1.20310  -3.65900    51    53    50    46
 C    -1.22250   1.20060  -3.67460    52    58    53    68
 C    -1.79190  -0.05680  -3.63780    53    54    52    51
 C    -3.01590  -0.07180  -3.01860    54    53    48    70
 C     2.58890   1.90970  -2.82120    55    79    40    56
 C     2.37110   0.62490  -3.34350    56    55    38    57
 C     1.04310   0.33910  -3.84660    57    58    50    56
 C     0.12220   1.38210  -3.78650    58    52    80    57
 C    -2.90330  -3.10940  -1.07410    59    60    63    47
 C    -1.89100  -3.88450  -0.61690    60    59    45     3
 C    -4.34640  -0.76570  -1.40990    61    62    64    48
 C    -4.43280  -1.43850  -0.24020    62    63    61    65
 C    -3.71030  -2.56130  -0.07200    63    62    59     1
 C    -4.38660   0.59430  -1.42420    64    70    67    61
 C    -4.50860  -0.74930   0.93290    65    66    62     6
 C    -4.54830   0.59690   0.90910    66    65    15    67
 C    -4.49250   1.29050  -0.26580    67    64    66    75
 C    -1.75250   2.31700  -3.00340    68    71    69    52
 C    -2.90400   2.26600  -2.27780    69    68    70    74
 C    -3.57730   1.05550  -2.39870    70    64    69    54
 C    -0.72860   3.14880  -2.67910    71    68    80    72
 C    -0.69140   3.93270  -1.51620    72    71    82    73
 C    -1.83440   3.81330  -0.64090    73    74    72    77
 C    -2.96580   3.02120  -1.06080    74    75    69    73
 C    -3.78400   2.44850  -0.07270    75    67    92    74
 C    -0.26410   4.15300   1.18260    76    81    88    77
 C    -1.58480   3.92200   0.77930    77    76    93    73
 C     1.74030   3.66420  -1.68550    78    79    86    82
 C     1.60210   2.85640  -2.76930    79    80    78    55
 C     0.39720   2.60490  -3.24370    80    79    58    71
 C     0.79370   4.31050   0.32830    81    76    82    84
 C     0.61900   4.19640  -1.02840    82    81    78    72
 C     3.73010   2.37430   0.93430    83    85    42    91
 C     1.95740   3.88730   0.97910    84    85    89    81
 C     3.02790   3.36730   0.29670    85    86    84    83
 C     2.90050   3.26270  -1.06280    86    85    78    40
 C    -0.45620   2.82170   3.09970    87    88    94    26
 C     0.27690   3.62590   2.33750    88    87    89    76
 C     1.60350   3.41070   2.22450    89    88    84    90
 C     2.23830   2.32610   2.84100    90    91    89    27
 C     3.33960   1.86670   2.17560    91    30    90    83
 C    -3.45800   2.49490   1.26750    92    93    75    15
 C    -2.37910   3.19370   1.70820    93    92    94    77
 C    -1.75950   2.62710   2.82350    94    87    13    93
