    94
C94-C1-41                                                                       
 C    -2.63280  -3.03780   1.54680     1    10     3     2
 C    -2.56790  -1.97860   2.54440     2     4     6     1
 C    -3.52150  -2.82390   0.47920     3    63    27     1
 C    -3.48200  -0.94860   2.42390     4    61     2     7
 C    -0.33120  -2.56340   2.97840     5    24     6     9
 C    -1.34100  -1.65100   3.19430     6     5     2    20
 C    -3.17020   0.35140   2.79740     7    66     4     8
 C    -1.90670   0.74370   3.29050     8     7    20    19
 C    -0.41070  -3.62690   2.08540     9    12    10     5
 C    -1.50630  -3.82510   1.25940    10     9     1    11
 C    -1.19590  -4.26870  -0.07440    11    14    26    10
 C     0.87420  -3.93750   1.73310    12    13    15     9
 C     1.17060  -4.38780   0.49870    13    12    14    35
 C     0.14680  -4.49260  -0.38950    14    13    28    11
 C     1.74810  -3.12160   2.38110    15    12    16    24
 C     2.98520  -2.80260   1.85510    16    17    15    34
 C     3.46230  -1.58070   2.27270    17    85    16    25
 C    -2.34680   2.82920   2.15940    18    67    75    19
 C    -1.47370   2.08420   2.99060    19    18    90     8
 C    -0.95690  -0.28050   3.54920    20     8    22     6
 C     0.88370   1.44680   3.35920    21    93    90    22
 C     0.44700   0.07760   3.63410    22    23    20    21
 C     1.40680  -0.97210   3.46850    23    24    25    22
 C     0.99100  -2.24670   3.14760    24     5    23    15
 C     2.69840  -0.70190   3.04540    25    94    23    17
 C    -2.00350  -3.77010  -1.11470    26    27    30    11
 C    -3.14610  -3.10440  -0.82450    27    26     3    39
 C     0.70350  -4.11550  -1.58730    28    29    31    14
 C    -0.04830  -3.46710  -2.47380    29    28    30    56
 C    -1.37200  -3.32700  -2.27690    30    29    37    26
 C     2.00910  -3.76610  -1.43730    31    28    35    32
 C     2.57870  -2.72500  -2.17760    32    33    31    55
 C     3.62220  -2.08570  -1.56490    33    57    32    36
 C     3.28730  -3.24420   0.54050    34    35    36    16
 C     2.33770  -3.99430  -0.10700    35    34    13    31
 C     4.00480  -2.35160  -0.24540    36    86    34    33
 C    -1.76220  -2.18690  -2.95300    37    38    42    30
 C    -2.90000  -1.51700  -2.65570    38    37    39    45
 C    -3.65870  -2.08040  -1.61720    39    40    27    38
 C    -4.47510  -1.33720  -0.85420    40    39    41    63
 C    -4.63350  -0.02960  -1.13260    41    40    64    46
 C    -0.62830  -1.57430  -3.44820    42    56    37    43
 C    -0.52370  -0.19410  -3.63030    43    42    53    44
 C    -1.71610   0.58040  -3.32670    44    48    43    45
 C    -2.91300  -0.11350  -2.87500    45    46    38    44
 C    -3.84800   0.58000  -2.10360    46    50    41    45
 C    -0.21830   2.50930  -2.98830    47    51    48    52
 C    -1.54410   1.97200  -2.95760    48    47    44    49
 C    -2.53990   2.60010  -2.09720    49    50    71    48
 C    -3.66150   1.87740  -1.71270    50    46    49    65
 C     0.02350   3.62400  -2.14770    51    79    70    47
 C     0.94410   1.71660  -3.31500    52    54    53    47
 C     0.82010   0.32290  -3.59360    53    52    43    59
 C     2.19110   2.15430  -2.81940    54    78    60    52
 C     1.74560  -1.95750  -3.06180    55    56    59    32
 C     0.44330  -2.39620  -3.17880    56    29    42    55
 C     3.93240  -0.78590  -1.84850    57    33    81    58
 C     3.15400  -0.02020  -2.72530    58    60    57    59
 C     1.97050  -0.56730  -3.30870    59    58    55    53
 C     3.23830   1.32330  -2.49990    60    58    54    83
 C    -4.44360  -0.88350   1.43350    61    63    62     4
 C    -4.71870   0.41790   1.18060    62    61    66    64
 C    -4.39290  -1.78370   0.44140    63    61     3    40
 C    -4.85320   0.85830  -0.12440    64    65    41    62
 C    -4.31310   2.04060  -0.49330    65    68    64    50
 C    -3.98660   1.16480   2.04620    66    67    62     7
 C    -3.53870   2.36770   1.69280    67    66    18    68
 C    -3.73530   2.84170   0.42070    68    69    65    67
 C    -2.70520   3.62120   0.10100    69    68    71    75
 C    -0.88210   4.07240  -1.22070    70    71    51    73
 C    -2.13430   3.60970  -1.17370    71    70    69    49
 C     1.13770   4.42120  -0.40280    72    73    76    79
 C    -0.15660   4.44700  -0.08540    73    72    74    70
 C    -0.60080   4.10190   1.19200    74    75    73    89
 C    -1.88900   3.73430   1.23340    75    74    18    69
 C     2.06570   4.10110   0.51540    76    72    80    91
 C     3.36190   3.07180  -1.14980    77    83    78    80
 C     2.33320   3.25870  -2.02620    78    79    77    54
 C     1.25750   3.94920  -1.68030    79    78    51    72
 C     3.20830   3.47170   0.14870    80    76    87    77
 C     4.57410  -0.23960  -0.73380    81    86    82    57
 C     4.53500   1.10930  -0.45060    82    81    83    88
 C     3.95400   1.88920  -1.43360    83    77    82    60
 C     4.12390   0.49070   1.81860    84    85    88    94
 C     4.29700  -0.82170   1.51180    85    86    84    17
 C     4.54960  -1.20140   0.23650    86    85    36    81
 C     3.59710   2.64800   1.15510    87    80    88    92
 C     4.32020   1.50610   0.90520    88    87    84    82
 C     0.32450   3.54230   2.11900    89    91    74    90
 C    -0.09540   2.44500   2.97900    90    19    21    89
 C     1.65750   3.61580   1.74030    91    92    76    89
 C     2.59880   2.71530   2.14240    92    91    93    87
 C     2.25360   1.63900   2.94120    93    94    92    21
 C     3.11000   0.56740   2.78520    94    25    93    84
