    94
C94-Cs-46                                                                       
 C     0.19210   4.26790   1.13430     1    10    51     2
 C     0.58250   3.42450   2.20940     2     3     1    13
 C     1.89670   2.96830   2.19920     3     2    71     4
 C     2.21360   1.70330   2.78070     4     5     3     7
 C     3.42730   1.14250   2.34180     5     6    49     4
 C     3.65620  -0.20860   2.33180     6     5     9    18
 C     1.17040   0.82330   3.27740     7     4    14     8
 C     1.42600  -0.61450   3.26890     8    16     9     7
 C     2.69800  -1.11750   2.76300     9     6    20     8
 C    -1.06260   4.41850   0.69340    10    11     1    62
 C    -2.05590   3.84130   1.35610    11    10    92    12
 C    -1.75740   2.95720   2.37050    12    34    11    13
 C    -0.45630   2.64470   2.80110    13    12     2    14
 C    -0.20020   1.30360   3.29620    14    13     7    15
 C    -1.31870   0.35780   3.32450    15    35    36    14
 C     0.29740  -1.51150   3.26430    16    17    36     8
 C     0.51320  -2.79290   2.71640    17    32    19    16
 C     4.59030  -0.46510   1.32650    18    22    42     6
 C     1.70160  -3.17880   2.14120    19    20    17    23
 C     2.80850  -2.39930   2.15500    20    19    21     9
 C     3.68480  -2.59760   1.07140    21    22    25    20
 C     4.50970  -1.62380   0.65400    22    18    21    43
 C     1.42090  -4.07190   1.11830    23    27    24    19
 C     2.17170  -4.05800  -0.03520    24    25    23    26
 C     3.29300  -3.32540  -0.04420    25    24    44    21
 C     1.41870  -4.05250  -1.18920    26    30    24    46
 C     0.08770  -4.29410   1.13100    27    23    29    32
 C    -1.92370  -4.21560  -0.01160    28    29    33    79
 C    -0.61530  -4.53050  -0.03040    29    28    30    27
 C     0.08630  -4.28330  -1.18820    30    26    29    81
 C    -1.78600  -3.20900   2.17990    31    32    33    39
 C    -0.48090  -3.56480   2.16270    32    31    17    27
 C    -2.55800  -3.68260   1.10250    33    85    28    31
 C    -2.79410   2.07380   2.38410    34    12    35    87
 C    -2.61730   0.79920   2.87070    35    34    37    15
 C    -1.06930  -1.06970   3.29340    36    16    15    39
 C    -3.56210  -0.08600   2.38180    37    38    35    89
 C    -3.32390  -1.42460   2.35630    38    37    84    39
 C    -2.11330  -1.96470   2.79260    39    38    31    36
 C     4.86720   0.68280  -0.69850    40    41    50    42
 C     4.58090  -0.45540  -1.37540    41    43    40    64
 C     4.87520   0.68710   0.68900    42    18    49    40
 C     4.51190  -1.62820  -0.72460    43    44    41    22
 C     3.69560  -2.59870  -1.15580    44    43    25    45
 C     2.80840  -2.38340  -2.22850    45    46    44    63
 C     1.69830  -3.15790  -2.21180    46    45    66    26
 C     3.79860   2.73740   0.68540    47    49    71    48
 C     3.78760   2.74650  -0.69820    48    50    53    47
 C     4.24340   1.67960   1.34860    49    47    42     5
 C     4.21970   1.67580  -1.35800    50    48    40    54
 C     0.95940   4.38310   0.00560    51    52    59     1
 C     2.17120   3.96190   0.00030    52    51    53    71
 C     2.71470   3.41400  -1.12650    53    48    52    56
 C     3.41430   1.15740  -2.36590    54    64    50    55
 C     2.20190   1.73940  -2.78580    55    54    56    69
 C     1.87870   3.00000  -2.19850    56    58    53    55
 C    -0.47600   2.67800  -2.78030    57    60    58    70
 C     0.56380   3.46210  -2.18890    58    56    59    57
 C     0.17520   4.30400  -1.11100    59    62    51    58
 C    -1.77870   2.99300  -2.33760    60    77    61    57
 C    -2.08050   3.89130  -1.33070    61    62    91    60
 C    -1.07780   4.45360  -0.68290    62    61    59    10
 C     2.69670  -1.09000  -2.81560    63    64    45    68
 C     3.65390  -0.18570  -2.38270    64    54    63    41
 C    -1.33300   0.39300  -3.32160    65    76    73    70
 C     0.50550  -2.76790  -2.76790    66    46    81    67
 C     0.28500  -1.47740  -3.29990    67    66    73    68
 C     1.41520  -0.58030  -3.30040    68    67    63    69
 C     1.15660   0.86030  -3.28640    69    70    55    68
 C    -0.21410   1.34050  -3.28990    70    69    57    65
 C     2.71520   3.39330   1.11780    71    47    52     3
 C    -2.11570  -1.93590  -2.80960    72    74    80    73
 C    -1.08110  -1.03460  -3.31020    73    67    65    72
 C    -3.31860  -1.40010  -2.35380    74    75    82    72
 C    -3.56850  -0.06140  -2.37120    75    74    76    93
 C    -2.62810   0.83450  -2.85770    76    77    75    65
 C    -2.81110   2.10410  -2.36150    77    60    76    90
 C    -3.63830  -3.01840  -0.68200    78    82    79    85
 C    -2.54310  -3.65940  -1.12750    79    78    28    80
 C    -1.78350  -3.18250  -2.21190    80    81    79    72
 C    -0.48400  -3.54410  -2.21020    81    80    66    30
 C    -4.08650  -1.93590  -1.33380    82    78    86    74
 C    -4.71190  -0.93960   0.68980    83    89    84    86
 C    -4.10420  -1.96410   1.34610    84    85    83    38
 C    -3.65820  -3.03840   0.68980    85    84    33    78
 C    -4.70960  -0.92300  -0.68500    86    93    82    83
 C    -3.70260   2.39700   1.35450    87    92    88    34
 C    -4.45220   1.44080   0.72040    88    87    89    94
 C    -4.46900   0.22250   1.34970    89    83    88    37
 C    -3.72180   2.42050  -1.33170    90    91    94    77
 C    -3.18950   3.47330  -0.67280    91    90    61    92
 C    -3.17570   3.45310   0.69760    92    87    11    91
 C    -4.48150   0.23790  -1.33990    93    86    94    75
 C    -4.46420   1.44900  -0.71120    94    93    90    88
