    94
C94-C1-111                                                                      
 C    -4.59830  -0.11430   0.54700     1     7    56     2
 C    -4.14170   0.65620   1.63860     2     1    54    10
 C    -2.38400   0.59160   3.40050     3     4    10    11
 C    -2.15710   1.94230   3.06820     4     5    55     3
 C    -0.94640   2.54530   3.21260     5     6     4    27
 C     0.06090   1.88670   3.74930     6     5    15    12
 C    -4.42730  -1.45470   0.47870     7     8     1    57
 C    -3.78780  -2.09980   1.48130     8     7    92     9
 C    -3.25880  -1.42290   2.53940     9     8    10    20
 C    -3.41880  -0.04370   2.67870    10     9     3     2
 C    -1.23790  -0.14990   3.89080    11    12    21     3
 C    -0.06270   0.56590   4.08440    12    24     6    11
 C     2.77540   2.82190   1.70060    13    14    28    19
 C     1.61810   3.10480   2.38700    14    13    15    26
 C     1.33180   2.18110   3.40050    15     6    16    14
 C     2.07620   1.05400   3.63860    16    18    15    24
 C     3.51790  -0.49820   2.70720    17    18    42    25
 C     3.22940   0.81820   2.96320    18    16    17    19
 C     3.59190   1.73880   1.99770    19    44    18    13
 C    -2.11420  -2.11870   2.94020    20    21    84     9
 C    -1.04870  -1.53870   3.59440    21    20    11    22
 C     0.27340  -2.11980   3.41770    22    23    21    86
 C     1.40640  -1.29050   3.67690    23    24    25    22
 C     1.19250   0.03530   4.00940    24    12    23    16
 C     2.62210  -1.51610   3.04640    25    89    23    17
 C     0.55080   3.74770   1.71400    26    27    14    30
 C    -0.72980   3.47610   2.22090    27    47     5    26
 C     2.90400   3.10570   0.35650    28    13    39    29
 C     1.87100   3.69440  -0.38320    29    28    34    30
 C     0.64520   4.06080   0.31000    30    31    26    29
 C    -0.59550   4.12520  -0.41790    31    32    46    30
 C    -0.51930   3.78010  -1.76830    32    35    48    31
 C     2.80500   2.36780  -2.28780    33    41    36    34
 C     1.86470   3.32360  -1.76680    34    35    29    33
 C     0.62570   3.38410  -2.38930    35    32    38    34
 C     2.30390   1.51490  -3.30210    36    37    77    33
 C     1.04220   1.56780  -3.77890    37    38    36    60
 C     0.22720   2.51210  -3.38140    38    37    51    35
 C     3.83850   2.21110  -0.15500    39    41    44    28
 C     4.21820   0.48340  -1.69730    40    76    45    41
 C     3.80530   1.80560  -1.47360    41    39    40    33
 C     4.21070  -0.87850   1.58350    42    17    80    43
 C     4.62470   0.04690   0.62800    43    45    44    42
 C     4.26130   1.36350   0.86260    44    19    43    39
 C     4.59690  -0.37500  -0.67970    45    43    40    83
 C    -1.86430   3.86990   0.18430    46    47    50    31
 C    -1.88670   3.51740   1.50940    47    27    46    55
 C    -1.57170   3.16960  -2.43310    48    49    51    32
 C    -2.72040   2.92790  -1.83890    49    48    50    64
 C    -2.90280   3.28910  -0.53810    50    49    53    46
 C    -1.10220   2.29200  -3.36620    51    38    48    62
 C    -4.16260   1.55220  -1.03350    52    56    64    53
 C    -3.82380   2.40690  -0.01150    53    52    50    54
 C    -3.78330   1.98580   1.31540    54    55    53     2
 C    -2.80130   2.59510   2.04640    55    54     4    47
 C    -4.55290   0.31960  -0.76620    56    52    58     1
 C    -4.20490  -1.80740  -0.83180    57    59    58     7
 C    -4.20120  -0.70800  -1.61940    58    57    56    67
 C    -3.37970  -2.82060  -1.10820    59    57    91    68
 C     0.54690   0.30860  -4.06630    60    69    37    61
 C    -0.80760  -0.03220  -3.96300    61    60    65    62
 C    -1.70960   1.04000  -3.65190    62    63    51    61
 C    -2.94580   0.78500  -3.02370    63    62    67    64
 C    -3.42980   1.80300  -2.15610    64    52    49    63
 C    -1.09980  -1.38740  -3.59330    65    61    66    71
 C    -2.39250  -1.62370  -2.99900    66    68    65    67
 C    -3.31730  -0.54710  -2.72620    67    63    58    66
 C    -2.49720  -2.74330  -2.15240    68    59    74    66
 C     1.58720  -0.54640  -3.82990    69    60    70    77
 C     1.39800  -1.85590  -3.41640    70    69    79    71
 C     0.02890  -2.29400  -3.29470    71    73    70    65
 C     0.84820  -3.77130  -1.53440    72    78    73    93
 C    -0.19320  -3.34230  -2.35140    73    74    72    71
 C    -1.42650  -3.52820  -1.80350    74    73    68    90
 C     3.54880  -1.58350  -2.24740    75    76    83    79
 C     3.62910  -0.29030  -2.65870    76    77    75    40
 C     2.67960   0.21160  -3.43420    77    76    36    69
 C     2.11870  -3.31330  -1.65290    78    72    79    81
 C     2.45460  -2.38540  -2.60570    79    78    75    70
 C     3.77170  -2.14050   1.24700    80    82    42    89
 C     2.72940  -3.37780  -0.40450    81    82    87    78
 C     3.76310  -2.54610  -0.06710    82    81    83    80
 C     4.18490  -1.65550  -1.02160    83    82    75    45
 C    -1.94380  -3.18810   2.07320    84    92    20    85
 C    -0.69190  -3.70430   1.75250    85    84    86    94
 C     0.45250  -3.21510   2.45800    86    85    88    22
 C     1.77450  -3.80820   0.49930    87    93    81    88
 C     1.72970  -3.36000   1.82450    88    89    87    86
 C     2.78240  -2.52730   2.14610    89    25    88    80
 C    -1.61890  -3.98250  -0.49010    90    91    94    74
 C    -2.81760  -3.53270  -0.09220    91    90    92    59
 C    -2.99420  -3.15840   1.19220    92    91     8    84
 C     0.65280  -4.12870  -0.19310    93    94    87    72
 C    -0.56630  -4.15840   0.39450    94    93    90    85
