    94
C94-C2-43                                                                       
 C     1.34460  -2.01630  -3.35540     1     2     9    16
 C     2.00810  -0.84370  -3.57290     2     1     3     5
 C     3.21520  -0.72010  -2.87590     3    60    15     2
 C     1.80290   1.50790  -3.46580     4    13    61     5
 C     1.22140   0.30280  -3.86310     5     4     2     7
 C    -0.95980   1.42850  -3.58090     6    10    11     7
 C    -0.21160   0.24030  -3.92660     7     5     6     8
 C    -0.85910  -1.04000  -3.72440     8     9    25     7
 C    -0.02910  -2.11280  -3.42760     9     1    20     8
 C    -2.27570   1.27040  -3.19750    10     6    24    93
 C    -0.32540   2.60880  -3.09160    11    13     6    12
 C    -0.98220   3.43500  -2.09780    12    14    92    11
 C     1.06160   2.59700  -3.08700    13     4    67    11
 C    -0.14280   4.06900  -1.18110    14    66    76    12
 C     3.65390  -1.65620  -1.94450    15    17    43     3
 C     1.82500  -2.97590  -2.47570    16    18     1    17
 C     2.96600  -2.81680  -1.68350    17    15    16    29
 C     0.72390  -3.64810  -2.05010    18    19    16    20
 C     0.70850  -4.16670  -0.82520    19    18    28    21
 C    -0.42160  -3.15550  -2.60650    20    18     9    23
 C    -0.47490  -4.18970  -0.12840    21    19    34    22
 C    -1.69220  -3.77590  -0.65480    22    21    39    23
 C    -1.66600  -3.22420  -1.99510    23    20    26    22
 C    -2.89150   0.02820  -3.10300    24    88    10    25
 C    -2.19270  -1.16720  -3.26070    25    24     8    26
 C    -2.60790  -2.26510  -2.40040    26    27    23    25
 C    -3.66820  -2.03980  -1.52500    27    89    26    38
 C     1.78270  -4.01130   0.00080    28    31    19    29
 C     2.95860  -3.32610  -0.36150    29    28    17    30
 C     3.62730  -2.60250   0.67220    30    33    42    29
 C     1.23450  -3.97520   1.24730    31    32    28    34
 C     1.82780  -3.26750   2.19500    32    31    33    35
 C     3.00410  -2.62280   1.93790    33    44    32    30
 C    -0.13440  -4.04950   1.20020    34    31    21    37
 C     1.06800  -2.57220   3.10470    35    50    32    36
 C    -0.32110  -2.59330   3.11140    36    35    52    37
 C    -0.97340  -3.41870   2.11560    37    34    40    36
 C    -3.68650  -2.56460  -0.22870    38    84    39    27
 C    -2.65590  -3.34700   0.28130    39    38    22    40
 C    -2.27270  -3.13560   1.66920    40    41    37    39
 C    -2.93340  -2.10840   2.33860    41    85    40    51
 C     4.32730  -1.40700   0.34910    42    43    46    30
 C     4.33810  -0.96250  -0.95860    43    42    15    59
 C     3.00370  -1.56300   2.79460    44    45    33    50
 C     3.68290  -0.46130   2.46920    45    44    48    46
 C     4.34710  -0.35820   1.27820    46    45    57    42
 C     1.35810   2.03900   3.36680    47    49    56    69
 C     3.21370   0.74700   2.87590    48    45    68    49
 C     2.01160   0.86200   3.58770    49    47    48    54
 C     1.80790  -1.48790   3.48830    50    35    44    54
 C    -2.26470  -1.25350   3.22160    51    52    78    41
 C    -0.95060  -1.41370   3.60380    52    51    36    53
 C    -0.20160  -0.22310   3.94600    53    54    52    55
 C     1.23140  -0.28400   3.88330    54    50    49    53
 C    -0.84890   1.05750   3.73680    55    56    79    53
 C    -0.01980   2.13150   3.43550    56    47    71    55
 C     4.33550   0.99200   0.94770    57    68    58    46
 C     4.33080   1.43260  -0.36520    58    57    59    63
 C     4.35020   0.38590  -1.29920    59    60    43    58
 C     3.68830   0.48970  -2.49040    60    61     3    59
 C     3.01100   1.59640  -2.79240    61    60    64     4
 C     2.95620   3.34410   0.36140    62    65    70    63
 C     3.62890   2.62780  -0.67840    63    64    58    62
 C     3.00270   2.66330  -1.94320    64    67    61    63
 C     1.77610   4.03080   0.00430    65    66    73    62
 C     1.22660   4.00010  -1.24320    66    67    65    14
 C     1.82730   3.30480  -2.19200    67    66    64    13
 C     3.65610   1.67740   1.93930    68    70    57    48
 C     1.82950   3.00060   2.48220    69    72    47    70
 C     2.96320   2.83630   1.68680    70    68    69    62
 C    -0.41110   3.17290   2.61080    71    72    56    74
 C     0.73020   3.67220   2.05610    72    73    69    71
 C     0.69880   4.19370   0.83210    73    72    65    76
 C    -1.66090   3.24700   2.00350    74    71    82    75
 C    -1.70020   3.80670   0.66630    75    76    91    74
 C    -0.48600   4.22520   0.14370    76    73    14    75
 C    -3.94820  -0.14750   2.27650    77    80    78    85
 C    -2.88020  -0.01210   3.11620    78    77    51    79
 C    -2.18220   1.18480   3.27220    79    78    55    82
 C    -4.35530   0.88580   1.50610    80    77    86    81
 C    -3.66310   2.06650   1.54370    81    80    82    94
 C    -2.60020   2.28420   2.41580    82    81    74    79
 C    -4.82510  -0.63960  -0.23240    83    84    89    86
 C    -4.39560  -1.66970   0.53910    84    85    83    38
 C    -3.97680  -1.42760   1.79980    85    84    41    77
 C    -4.81790   0.64580   0.24600    86    90    80    83
 C    -3.98140   1.44100  -1.78290    87    90    93    88
 C    -3.96180   0.16230  -2.26640    88    89    24    87
 C    -4.37360  -0.86620  -1.49730    89    88    83    27
 C    -4.39140   1.68490  -0.51560    90    87    86    94
 C    -2.66880   3.37200  -0.26200    91    94    75    92
 C    -2.28270   3.15650  -1.65040    92    93    12    91
 C    -2.94060   2.13130  -2.32220    93    87    92    10
 C    -3.69360   2.58760   0.24650    94    90    91    81
