    94
C94-C1-49                                                                       
 C    -2.65640  -3.51250  -0.42490     1     6     2    61
 C    -3.30250  -2.68900  -1.31070     2     1     3     9
 C    -4.23240  -1.82420  -0.71860     3     4    60     2
 C    -4.53330  -0.63000  -1.28070     4     3     5    18
 C    -3.86500  -0.22440  -2.38720     5    19     4    10
 C    -1.42070  -4.02440  -0.68700     6     1    66     7
 C    -0.66230  -3.71860  -1.82600     7     6    14     8
 C    -1.23340  -2.73320  -2.71400     8     9     7    12
 C    -2.56120  -2.26900  -2.46450     9    10     8     2
 C    -2.87980  -0.99830  -2.93840    10     5    28     9
 C     1.04790  -2.09320  -3.24290    11    29    13    12
 C    -0.30490  -1.84460  -3.39950    12    11    27     8
 C     1.55940  -3.09040  -2.43660    13    14    11    94
 C     0.73250  -3.87190  -1.67460    14    13    15     7
 C     1.28940  -4.19110  -0.42440    15    65    91    14
 C    -4.49170   1.57170  -0.45780    16    18    34    17
 C    -3.87910   1.97840  -1.62590    17    19    26    16
 C    -4.80960   0.27440  -0.28800    18    16    43     4
 C    -3.53230   1.07620  -2.55820    19    17     5    20
 C    -2.33300   1.16510  -3.20780    20    19    28    24
 C     0.92140   2.81570  -2.73140    21    22    37    23
 C     2.24270   2.34270  -2.65140    22    32    83    21
 C    -0.06260   1.95360  -3.33400    23    24    21    31
 C    -1.43030   2.22340  -3.03030    24    20    23    25
 C    -1.81770   3.21560  -2.05940    25    36    26    24
 C    -3.03260   2.99980  -1.36640    26    17    35    25
 C    -0.64010  -0.47880  -3.72190    27    28    12    31
 C    -1.94240  -0.13320  -3.49320    28    27    20    10
 C     2.01230  -1.12020  -3.36700    29    11    30    87
 C     1.69420   0.21340  -3.58320    30    32    29    31
 C     0.33910   0.59240  -3.73520    31    30    27    23
 C     2.62340   1.09660  -3.07100    32    22    30    90
 C    -2.18010   3.76100   0.64420    33    35    38    39
 C    -3.98320   2.30290   0.57340    34    16    35    41
 C    -3.18330   3.23620  -0.01560    35    33    34    26
 C    -0.80890   3.91780  -1.37320    36    25    37    38
 C     0.54590   3.77750  -1.73320    37    36    57    21
 C    -1.06720   4.18880  -0.00250    38    53    33    36
 C    -1.84990   3.31660   1.90810    39    45    33    40
 C    -2.51140   2.25420   2.51150    40    39    48    41
 C    -3.67360   1.73730   1.83520    41    42    34    40
 C    -4.02660   0.37880   1.98280    42    44    43    41
 C    -4.61790  -0.33060   0.91760    43    18    60    42
 C    -3.20110  -0.39030   2.78730    44    58    42    49
 C    -0.53370   3.60140   2.08720    45    39    53    46
 C     0.32190   2.85270   2.89220    46    45    55    47
 C    -0.24600   1.67830   3.50010    47    46    48    51
 C    -1.65820   1.42440   3.31200    48    49    40    47
 C    -2.06420   0.10370   3.41570    49    48    68    44
 C     1.99170   0.72690   3.41420    50    56    69    51
 C     0.64970   0.55820   3.74070    51    50    67    47
 C     1.16680   4.19750   0.57900    52    53    54    57
 C    -0.09340   4.22510   0.93540    53    52    38    45
 C     2.09230   3.63000   1.39960    54    52    79    55
 C     1.69380   2.92970   2.54740    55    56    54    46
 C     2.50960   1.87530   2.83990    56    55    50    81
 C     1.51730   4.03970  -0.73520    57    84    52    37
 C    -3.00570  -1.74080   2.57910    58    44    59    62
 C    -3.56370  -2.40510   1.50230    59    60    61    58
 C    -4.34110  -1.66440   0.66700    60    59    43     3
 C    -2.78280  -3.38010   0.96150    61    59    64     1
 C    -1.76480  -2.07390   3.09200    62    68    63    58
 C    -1.01620  -3.12650   2.61890    63    62    64    72
 C    -1.59640  -3.77130   1.51780    64    66    61    63
 C     0.48960  -4.29690   0.66480    65    66    15    73
 C    -0.82250  -4.26980   0.52900    66    65    64     6
 C     0.19610  -0.79810   3.74460    67    68    51    71
 C    -1.17730  -0.94640   3.61400    68    62    67    49
 C     2.82520  -0.31650   3.04670    69    74    50    70
 C     2.39140  -1.63940   2.94750    70    69    71    77
 C     1.03410  -1.91080   3.32460    71    70    72    67
 C     0.39100  -3.05970   2.74120    72    73    63    71
 C     1.11760  -3.75110   1.76150    73    78    65    72
 C     3.83180   0.21380   2.26400    74    75    81    69
 C     4.41110  -0.52720   1.30210    75    74    76    85
 C     4.04700  -1.82400   1.14870    76    75    92    77
 C     3.07920  -2.42500   1.96270    77    78    76    70
 C     2.38050  -3.43930   1.36450    78    73    77    91
 C     3.14640   3.24630   0.59490    79    84    80    54
 C     3.97860   2.19190   0.91050    80    79    81    86
 C     3.63280   1.54770   2.09560    81    74    56    80
 C     4.02770   1.68260  -1.43580    82    83    90    86
 C     3.15330   2.70230  -1.67570    83    84    82    22
 C     2.76160   3.51090  -0.70170    84    83    57    79
 C     4.72670   0.04900   0.09120    85    75    88    86
 C     4.49800   1.39870  -0.14240    86    85    82    80
 C     3.13250  -1.52640  -2.64630    87    94    89    29
 C     4.53510  -0.93740  -0.85640    88    85    89    92
 C     4.01390  -0.62040  -2.10270    89    90    87    88
 C     3.75300   0.69570  -2.35300    90    89    82    32
 C     2.51430  -3.74360   0.00630    91    93    15    78
 C     4.16670  -2.10940  -0.21090    92    93    88    76
 C     3.35320  -3.03950  -0.80730    93    91    92    94
 C     2.83610  -2.72230  -2.04820    94    87    93    13
