    94
C94-C1-66                                                                       
 C     1.48610   2.60090  -2.86040     1     6     2    57
 C     2.69020   2.50920  -2.23380     2     1     3     9
 C     3.37170   1.33460  -2.52210     3     4     2    56
 C     4.29050   0.80890  -1.68400     4     3     5    18
 C     4.50100   1.39900  -0.47870     5     4    19    10
 C     0.48970   3.38670  -2.37980     6     1    68     7
 C     0.53850   4.04220  -1.13880     7     6    14     8
 C     1.74430   3.85560  -0.37570     8     7     9    12
 C     2.85290   3.14570  -0.96280     9    10     2     8
 C     3.77530   2.51010  -0.11650    10     5    24     9
 C     0.30800   3.90910   1.56910    11    13    84    12
 C     1.60800   3.79460   1.05910    12    11    23     8
 C    -0.81570   4.13200   0.82810    13    11    14    92
 C    -0.73810   4.21770  -0.53970    14    13    15     7
 C    -1.89410   3.77970  -1.17420    15    69    89    14
 C     4.53370  -1.30910  -0.73190    16    18    27    17
 C     4.74270  -0.72630   0.49790    17    19    30    16
 C     4.28310  -0.54440  -1.81550    18    16     4    37
 C     4.71640   0.61940   0.62120    19    17    20     5
 C     4.11340   1.19980   1.68930    20    19    24    21
 C     3.48710   0.42250   2.67770    21    22    20    29
 C     2.42050   1.03100   3.27860    22    21    25    44
 C     2.51140   3.01590   1.83220    23    24    25    12
 C     3.58460   2.42040   1.24870    24    23    10    20
 C     1.99280   2.30080   2.91880    25    85    22    23
 C     2.61470  -3.26610   1.24140    26    28    33    31
 C     3.83820  -2.46400  -0.58820    27    16    28    35
 C     3.66630  -2.60410   0.77600    28    26    30    27
 C     3.44650  -0.98600   2.56280    29    30    21    32
 C     4.13340  -1.50960   1.44690    30    28    17    29
 C     1.93730  -2.85330   2.36190    31    26    48    32
 C     2.27350  -1.68700   3.03930    32    31    45    29
 C     1.76910  -3.89720   0.39490    33    26    39    34
 C     1.87940  -3.73620  -0.99380    34    38    35    33
 C     2.88890  -2.92780  -1.52380    35    34    27    36
 C     2.57810  -2.06970  -2.64500    36    37    53    35
 C     3.31620  -0.89440  -2.72310    37    18    56    36
 C     0.67430  -3.78310  -1.62560    38    34    41    52
 C     0.56770  -4.02830   1.06050    39    40    33    48
 C    -0.61430  -4.19690   0.40920    40    39    41    50
 C    -0.50190  -4.08340  -0.98120    41    43    38    40
 C    -2.68060  -3.33550  -1.17960    42    43    67    51
 C    -1.50620  -3.57840  -1.72770    43    42    41    58
 C     1.31670   0.34150   3.77360    44    88    45    22
 C     1.15890  -1.03050   3.64510    45    44    32    46
 C    -0.20740  -1.51790   3.58060    46    45    47    80
 C    -0.45150  -2.75500   2.86040    47    48    49    46
 C     0.65640  -3.34100   2.26640    48    31    47    39
 C    -1.71400  -3.06040   2.27230    49    82    47    50
 C    -1.80280  -3.79750   1.03140    50    40    51    49
 C    -2.87260  -3.48430   0.18110    51    77    42    50
 C     0.35930  -2.96260  -2.70410    52    58    53    38
 C     1.24960  -2.03420  -3.19950    53    52    36    54
 C     0.64170  -0.83080  -3.73900    54    55    53    61
 C     1.48430   0.31840  -3.70500    55    57    56    54
 C     2.76790   0.26630  -3.21070    56    37    55     3
 C     0.89930   1.55270  -3.58930    57    66    55     1
 C    -1.00530  -2.81390  -2.74920    58    43    52    60
 C    -2.98550  -1.44140  -2.68600    59    63    67    60
 C    -1.67570  -1.68650  -3.23810    60    58    61    59
 C    -0.82540  -0.64780  -3.73400    61    60    65    54
 C    -4.36370   0.19630  -1.53220    62    79    74    63
 C    -3.48050  -0.10870  -2.61580    63    64    59    62
 C    -2.66970   0.93780  -3.11200    64    63    70    65
 C    -1.37510   0.67910  -3.67430    65    66    64    61
 C    -0.44430   1.72470  -3.59010    66    57    68    65
 C    -3.45980  -2.32880  -1.67890    67    42    78    59
 C    -0.67180   2.90040  -2.92290    68    69    66     6
 C    -1.84160   3.10650  -2.36080    69    68    70    15
 C    -2.83800   2.19420  -2.46930    70    69    75    64
 C    -4.23760  -0.70090   1.74560    71    76    72    93
 C    -4.72560  -0.06650   0.64800    72    73    71    79
 C    -4.47640   1.25250   0.47470    73    72    74    90
 C    -4.35050   1.41820  -0.89240    74    75    62    73
 C    -3.61150   2.40160  -1.36130    75    74    70    89
 C    -3.80650  -1.98330   1.66750    76    77    71    82
 C    -3.86860  -2.63230   0.48030    77    51    76    78
 C    -4.28000  -1.96390  -0.64730    78    79    67    77
 C    -4.71050  -0.70730  -0.56850    79    78    62    72
 C    -1.30790  -0.57320   3.67220    80    81    87    46
 C    -2.53560  -0.94210   3.15240    81    80    82    93
 C    -2.74170  -2.15100   2.51150    82    76    81    49
 C    -1.45050   2.94500   2.60990    83    84    92    86
 C    -0.11920   3.21560   2.67530    84    85    83    11
 C     0.70420   2.38640   3.29470    85    84    25    88
 C    -2.01200   1.77380   3.14870    86    83    94    87
 C    -1.08150   0.83130   3.73630    87    88    80    86
 C     0.24800   1.20600   3.80290    88    85    44    87
 C    -3.01310   3.30270  -0.52010    89    75    15    91
 C    -3.76220   2.03780   1.40580    90    73    91    94
 C    -3.05630   3.13840   0.86270    91    92    89    90
 C    -1.92540   3.57890   1.49110    92    91    83    13
 C    -3.46770  -0.02070   2.65140    93    71    94    81
 C    -3.21570   1.34460   2.55120    94    93    86    90
