    94
C94-C1-19                                                                       
 C     3.47290  -2.09780  -2.13730     1     2    13    22
 C     4.04190  -0.88850  -2.20190     2     1     3    12
 C     3.38280   0.10460  -2.85880     3     2    60     9
 C    -0.98680   3.80980  -1.37460     4    77    62     5
 C    -0.33680   3.19700  -2.44450     5     6     4    17
 C     1.02670   3.23430  -2.36480     6     7     5    64
 C     1.80420   2.27080  -2.93210     7     6    59     8
 C     1.26820   1.11050  -3.52270     8     7     9    18
 C     2.10100  -0.04480  -3.46510     9     8     3    21
 C     4.80430  -1.11030   0.00840    10    12    28    11
 C     4.23900  -2.36050   0.06540    11    13    10    31
 C     4.73980  -0.37580  -1.13070    12    38    10     2
 C     3.59250  -2.85890  -1.01480    13    14    11     1
 C     2.46650  -3.58360  -0.87990    14    13    15    25
 C     1.91480  -3.85280   0.36820    15    16    14    30
 C     0.57550  -4.07750   0.34080    16    15    51    26
 C    -0.99190   2.12150  -3.11510    17     5    90    18
 C    -0.15510   1.01350  -3.60860    18     8    19    17
 C    -0.72220  -0.31500  -3.64770    19    92    20    18
 C     0.08240  -1.49930  -3.45330    20    21    19    23
 C     1.49960  -1.33860  -3.39380    21    22    20     9
 C     2.24780  -2.31860  -2.71330    22    25     1    21
 C    -0.53770  -2.65990  -2.79040    23    24    94    20
 C     0.30450  -3.48680  -1.99390    24    25    26    23
 C     1.64950  -3.31540  -1.98570    25    24    22    14
 C    -0.20410  -4.00100  -0.80850    26    88    24    16
 C     3.07850  -0.96420   2.91280    27    29    34    32
 C     4.60520  -0.46420   1.20200    28    10    29    36
 C     3.94360  -1.38830   1.98780    29    27    31    28
 C     2.47910  -3.26600   1.52250    30    31    15    33
 C     3.66700  -2.54050   1.30250    31    29    11    30
 C     1.93370  -1.66120   3.20430    32    27    48    33
 C     1.56990  -2.83200   2.54830    33    32    52    30
 C     2.87530   0.35710   3.12880    34    27    40    35
 C     3.52680   1.32550   2.36370    35    39    34    36
 C     4.39810   0.93020   1.31000    36    28    35    37
 C     4.40020   1.70060   0.09450    37    38    57    36
 C     4.54770   0.96600  -1.10430    38    12    60    37
 C     2.77370   2.46770   2.24120    39    56    35    45
 C     1.59310   0.48940   3.64240    40    44    48    34
 C    -2.46520   0.06490   3.27770    41    42    72    49
 C    -1.15810   0.23350   3.66780    42    41    47    43
 C    -0.57850   1.55120   3.50670    43    44    42    71
 C     0.83910   1.63020   3.50570    44    40    45    43
 C     1.50240   2.62530   2.81010    45    66    44    39
 C    -2.17130  -2.27090   2.66780    46    49    54    55
 C    -0.35230  -0.95870   3.67600    47    48    42    55
 C     1.01090  -0.76400   3.69390    48    32    47    40
 C    -2.98390  -1.14800   2.84600    49    86    41    46
 C    -1.53830  -3.74100   0.92500    50    54    51    88
 C    -0.26100  -3.79200   1.40100    51    50    16    52
 C     0.17480  -3.08040   2.51870    52    51    33    55
 C    -3.62700  -2.74340   0.74860    53    85    54    89
 C    -2.55020  -3.08340   1.55890    54    50    53    46
 C    -0.81620  -2.21010   3.11650    55    46    47    52
 C     2.82860   3.23870   1.11040    56    39    61    57
 C     3.58580   2.85890   0.00800    57    56    58    37
 C     2.94510   3.15160  -1.20700    58    59    64    57
 C     3.01260   2.30730  -2.27200    59    60    58     7
 C     3.79650   1.25550  -2.23050    60    59     3    38
 C     1.61100   3.88730   1.02430    61    63    56    66
 C    -0.29640   4.22420  -0.24570    62    63    70     4
 C     1.05740   4.20170  -0.18820    63    62    64    61
 C     1.72930   3.77320  -1.28810    64    63    58     6
 C    -0.58480   3.52940   2.04620    65    66    70    71
 C     0.79560   3.52800   2.08480    66    45    65    61
 C    -4.13730   2.16280   0.38820    67    81    68    75
 C    -3.18390   2.84570   1.13710    68    69    67    73
 C    -2.32720   3.59750   0.38410    69    70    68    77
 C    -1.11250   3.97430   0.83940    70    69    62    65
 C    -1.33960   2.57190   2.79150    71    65    73    43
 C    -3.22890   1.06720   2.69730    72    79    41    73
 C    -2.67210   2.29240   2.35730    73    72    71    68
 C    -4.58880   0.85410  -1.34790    74    78    75    80
 C    -4.05760   2.06380  -1.01020    75    74    76    67
 C    -3.01640   2.63410  -1.72770    76    77    75    90
 C    -2.24860   3.49580  -1.00720    77     4    76    69
 C    -3.98160   0.14790  -2.33890    78    82    74    91
 C    -4.24200   0.46870   1.98700    79    81    86    72
 C    -5.04290   0.21510  -0.22200    80    81    84    74
 C    -4.72290   1.01300   0.83410    81    80    79    67
 C    -3.85900  -1.20020  -2.24480    82    78    83    93
 C    -4.33120  -1.84170  -1.14180    83    82    89    84
 C    -4.90820  -1.14250  -0.11880    84    85    83    80
 C    -4.44220  -1.68860   1.04400    85    86    53    84
 C    -4.09780  -0.88830   2.08550    86    85    79    49
 C    -2.42350  -3.31000  -1.28940    87    88    89    94
 C    -1.49280  -3.86550  -0.46180    88    26    87    50
 C    -3.56220  -2.85260  -0.64650    89    83    87    53
 C    -2.36520   1.90670  -2.78050    90    91    17    76
 C    -2.88310   0.64310  -3.00310    91    78    90    92
 C    -2.07750  -0.42450  -3.36600    92    91    93    19
 C    -2.68100  -1.56370  -2.85390    93    82    94    92
 C    -1.92420  -2.64880  -2.46020    94    93    23    87
