    94
C94-C2-107                                                                      
 C    -4.21040  -0.75030  -1.48680     1     2     6    61
 C    -4.49160   0.39850  -0.90540     2     1    15     3
 C    -4.58760   0.48750   0.47130     3     4     2    60
 C    -4.27460   1.77040   0.76010     4     5     3     7
 C    -3.59570   2.05820   1.89300     5     4     8    57
 C    -3.41150  -0.79700  -2.59530     6    66     1    13
 C    -3.94540   2.41920  -0.41050     7    10    15     4
 C    -2.68690   3.06000   1.89750     8     9     5    20
 C    -2.44650   3.75260   0.76550     9    21     8    10
 C    -3.03320   3.38830  -0.40600    10     7     9    16
 C    -1.02460  -1.23210  -3.71990    11    76    65    12
 C    -1.44980   0.10990  -3.68720    12    11    13    33
 C    -2.73860   0.34340  -3.11630    13    14     6    12
 C    -3.03980   1.58270  -2.51710    14    13    15    17
 C    -3.98540   1.55750  -1.45090    15     7     2    14
 C    -2.12170   3.51250  -1.42000    16    10    32    17
 C    -2.03270   2.60050  -2.50290    17    16    14    34
 C    -0.97170   0.63440   3.71380    18    19    38    28
 C    -1.95410   1.48910   3.25910    19    18    20    57
 C    -1.64970   2.72800   2.73480    20     8    19    24
 C    -1.21400   4.20040   0.51940    21     9    23    32
 C     1.04920   4.11240   0.86390    22    23    25    31
 C    -0.17100   4.02530   1.42790    23    22    21    24
 C    -0.34520   3.18100   2.56950    24    20    23    27
 C     2.14340   3.49500   1.42110    25    90    22    26
 C     2.05270   2.57780   2.49970    26    25    54    27
 C     0.74130   2.37430   3.07010    27    24    26    28
 C     0.42280   1.08060   3.66830    28    29    27    18
 C     1.45170   0.08430   3.67480    29    30    55    28
 C     1.01580  -1.25080   3.69500    30    37    48    29
 C     1.24390   4.20320  -0.52210    31    89    36    22
 C    -1.02610   4.13050  -0.86820    32    36    16    21
 C    -0.40980   1.09920  -3.67590    33    12    34    92
 C    -0.72230   2.39400  -3.07160    34    17    35    33
 C     0.36770   3.19480  -2.56270    35    94    36    34
 C     0.19450   4.04160  -1.42460    36    32    31    35
 C    -0.29950  -1.62930   3.66430    37    30    40    38
 C    -1.35580  -0.74270   3.65910    38    37    18    39
 C    -2.57690  -1.19490   3.02270    39    42    56    38
 C    -0.33930  -2.86260   3.05520    40    41    43    37
 C    -1.41730  -3.23400   2.38790    41    40    42    44
 C    -2.52580  -2.44450   2.38250    42    41    58    39
 C     0.88590  -3.25640   2.65500    43    40    48    46
 C    -1.29460  -3.95810   1.22820    44    62    41    45
 C    -0.04160  -4.30750   0.69390    45    44    68    46
 C     1.12290  -3.97710   1.46640    46    43    50    45
 C     2.88700  -2.07750   2.56180    47    48    52    49
 C     1.72590  -2.29670   3.13880    48    47    43    30
 C     3.23190  -2.77180   1.42840    49    47    77    50
 C     2.35690  -3.68340   0.84300    50    51    49    46
 C     2.39360  -3.66640  -0.53340    51    67    50    80
 C     3.41490  -0.82740   2.57360    52    47    87    55
 C     4.00050   1.53060   1.45290    53    91    86    54
 C     3.04990   1.55120   2.51880    54    55    53    26
 C     2.74300   0.30900   3.10860    55    54    52    29
 C    -3.50110  -0.27770   2.49360    56    57    39    60
 C    -3.17580   1.05940   2.71830    57     5    56    19
 C    -3.20010  -2.74820   1.22410    58    42    59    62
 C    -4.05510  -1.83440   0.65480    59    58    61    60
 C    -4.26750  -0.59890   1.30730    60     3    59    56
 C    -4.05490  -1.89290  -0.73990    61     1    64    59
 C    -2.41410  -3.65900   0.49630    62    44    63    58
 C    -2.38150  -3.66340  -0.88150    63    62    64    69
 C    -3.24260  -2.73800  -1.46170    64    66    61    63
 C    -1.73600  -2.28150  -3.16810    65    66    70    11
 C    -2.89810  -2.05080  -2.59900    66    65     6    64
 C     1.26840  -3.95860  -1.26550    67    51    72    68
 C     0.01480  -4.30600  -0.72780    68    67    45    69
 C    -1.14310  -3.96350  -1.50300    69    70    63    68
 C    -0.89680  -3.24050  -2.68860    70    73    65    69
 C     2.51570  -2.45670  -2.40830    71    72    80    74
 C     1.40110  -3.23810  -2.42770    72    73    71    67
 C     0.32920  -2.85280  -3.09540    73    72    70    76
 C     2.56700  -1.19980  -3.04300    74    82    71    75
 C     1.34910  -0.73710  -3.68240    75    76    92    74
 C     0.29030  -1.61780  -3.70140    76    11    73    75
 C     4.05830  -1.92310   0.71930    77    87    49    79
 C     4.25550  -0.61580  -1.31640    78    85    79    82
 C     4.04600  -1.86170  -0.67680    79    80    77    78
 C     3.19460  -2.76570  -1.25450    80    79    71    51
 C     3.17970   1.05210  -2.71500    81    83    82    93
 C     3.49160  -0.28680  -2.50110    82    81    74    78
 C     3.60940   2.04330  -1.87960    83    84    88    81
 C     4.27910   1.74510  -0.74250    84    85    83    91
 C     4.57910   0.45860  -0.46070    85    84    86    78
 C     4.50560   0.36400   0.91560    86    87    53    85
 C     4.22700  -0.78870   1.47610    87    86    52    77
 C     2.70480   3.05170  -1.88910    88    89    83    94
 C     2.47300   3.75180  -0.75710    89    31    88    90
 C     3.06690   3.38200   0.41110    90    91    89    25
 C     3.96860   2.40890   0.41930    91    90    53    84
 C     0.98190   0.64330  -3.72320    92    93    75    33
 C     1.96450   1.49030  -3.26170    93    94    92    81
 C     1.66750   2.72290  -2.72960    94    88    93    35
