    94
C94-C1-5                                                                        
 C     4.62730  -0.01520   1.40060     1     2     7    64
 C     4.33220  -1.35310   1.42920     2     1     4     3
 C     4.35150  -2.04210   0.22360     3    10     2    61
 C     3.36420  -1.74200   2.33980     4     8     2     5
 C     2.65270  -0.84020   3.11740     5     6    23     4
 C     2.89950   0.49870   3.07750     6     5     7    19
 C     3.96620   0.88320   2.24010     7    66     1     6
 C     2.54670  -2.81250   2.11870     8     4     9    12
 C     2.61260  -3.53500   0.95030     9    11    10     8
 C     3.48750  -3.09560  -0.01060    10     9     3    29
 C     1.42580  -4.04800   0.53550    11     9    15    27
 C     1.34630  -2.58780   2.77880    12    14    23     8
 C    -1.06590  -2.53710   2.73700    13    14    17    25
 C     0.16010  -3.16480   2.41220    14    12    15    13
 C     0.26020  -3.95020   1.26490    15    39    11    14
 C    -3.33340  -2.12050   1.98770    16    17    26    89
 C    -2.21000  -2.92130   1.96200    17    16    38    13
 C     1.88070   2.57700   2.64080    18    91    67    19
 C     1.77150   1.34620   3.28890    19    18     6    21
 C    -0.71700   1.66350   3.23330    20    94    21    92
 C     0.43630   0.84660   3.55170    21    22    20    19
 C     0.24330  -0.58600   3.60500    22    23    25    21
 C     1.39370  -1.34640   3.36720    23    12     5    22
 C    -2.16770  -0.36310   3.23070    24    26    25    94
 C    -1.03050  -1.20520   3.35970    25    24    22    13
 C    -3.32690  -0.89200   2.62300    26    87    16    24
 C     1.05950  -4.05290  -0.79930    27    32    28    11
 C     1.83150  -3.46700  -1.76680    28    27    29    36
 C     3.09670  -3.05510  -1.34010    29    30    10    28
 C     3.74900  -1.99480  -1.87860    30    31    29    61
 C     3.09790  -1.28510  -2.82100    31    30    43    37
 C    -0.28870  -4.06050  -0.85790    32    27    34    39
 C    -2.29600  -3.20660  -1.58330    33    34    58    40
 C    -0.99660  -3.45950  -1.88650    34    33    32    35
 C    -0.29540  -2.65230  -2.82410    35    34    36    57
 C     1.13100  -2.71370  -2.75960    36    37    35    28
 C     1.82410  -1.61670  -3.22940    37    51    31    36
 C    -2.03550  -3.67810   0.75980    38    39    40    17
 C    -0.79600  -4.09020   0.43740    39    38    15    32
 C    -2.86030  -3.40060  -0.31530    40    90    38    33
 C     3.74550   2.04300  -1.83120    41    62    42    47
 C     4.15100   0.73810  -2.06690    42    41    43    60
 C     3.27790   0.05430  -2.90850    43    31    44    42
 C     2.08360   0.56340  -3.40080    44    46    51    43
 C     0.26680   2.09560  -3.12140    45    46    49    55
 C     1.65630   1.83450  -3.11900    46    44    47    45
 C     2.54230   2.56030  -2.33380    47    70    46    41
 C    -1.48020   3.21670  -1.92680    48    49    56    74
 C    -0.15900   3.16410  -2.24780    49    48    69    45
 C    -0.19220  -0.30190  -3.64380    50    51    57    55
 C     1.18410  -0.46060  -3.61440    51    37    44    50
 C    -4.10770   0.24960  -2.14070    52    85    80    53
 C    -2.93670   0.06250  -2.94400    53    59    52    54
 C    -2.06680   1.18720  -3.12280    54    56    55    53
 C    -0.69790   1.04030  -3.46570    55    54    50    45
 C    -2.42770   2.34450  -2.41580    56    81    48    54
 C    -0.99570  -1.45770  -3.32280    57    59    50    35
 C    -3.01220  -2.19790  -2.17310    58    33    83    59
 C    -2.36940  -1.24860  -2.99310    59    58    57    53
 C     4.80590   0.01100  -1.02470    60    61    64    42
 C     4.55630  -1.35540  -0.96820    61    30    60     3
 C     3.99300   2.66740  -0.64050    62    63    65    41
 C     4.54590   1.95340   0.38050    63    64    62    66
 C     4.92790   0.65950   0.20910    64    63    60     1
 C     2.96750   3.53690  -0.41490    65    68    62    70
 C     3.97340   2.08630   1.62410    66    67     7    63
 C     2.93930   2.92050   1.82900    67    66    68    18
 C     2.45700   3.69220   0.82530    68    71    65    67
 C     0.72960   3.78750  -1.32710    69    70    49    72
 C     2.07450   3.50130  -1.45140    70    65    47    69
 C     1.14450   3.91510   1.02490    71    68    72    91
 C     0.23660   4.09800  -0.00380    72    75    71    69
 C    -3.20750   3.21390  -0.54800    73    74    76    81
 C    -1.96220   3.69570  -0.71220    74    73    75    48
 C    -1.09350   3.94990   0.33320    75    72    74    78
 C    -3.66210   2.87300   0.67820    76    73    82    77
 C    -2.75210   2.87130   1.70620    77    76    78    93
 C    -1.49360   3.41270   1.61650    78    77    92    75
 C    -5.00250   1.15940  -0.27370    79    84    82    80
 C    -4.39320   1.42370  -1.48820    80    81    52    79
 C    -3.53100   2.43170  -1.61750    81    80    73    56
 C    -4.54470   1.85700   0.82050    82    76    86    79
 C    -4.09460  -1.92850  -1.37460    83    85    90    58
 C    -5.17870  -0.18520  -0.19060    84    79    88    85
 C    -4.67690  -0.72510  -1.35930    85    83    52    84
 C    -4.15690   1.18220   1.94830    86    87    82    93
 C    -4.31660  -0.14770   2.01640    87    86    88    26
 C    -4.88550  -0.85170   0.98340    88    89    87    84
 C    -4.27590  -2.05740   0.96880    89    88    90    16
 C    -3.95440  -2.64010  -0.21030    90    40    89    83
 C     0.77670   3.26250   2.20080    91    92    18    71
 C    -0.50520   2.89700   2.48860    92    91    78    20
 C    -3.02730   1.76430   2.48610    93    86    77    94
 C    -2.00780   1.06520   3.16110    94    93    20    24
