    94
C94-C2-109                                                                      
 C    -3.56820  -0.82740  -2.25520     1     3    18    48
 C    -3.41650   1.48750  -2.29140     2     5     3    56
 C    -4.02180   0.33620  -1.85070     3     1     2     8
 C    -2.84520   3.39540  -1.12580     4     5    11    50
 C    -3.70600   2.40060  -1.33280     5     4     2     9
 C    -1.33300   4.25640   0.19750     6    11    10    62
 C    -4.02620   2.15910   0.97390     7    14     9    12
 C    -4.53880   0.47560  -0.58510     8     9     3    16
 C    -4.35390   1.78690  -0.28940     9     8     7     5
 C    -0.54770   4.07370   1.33980    10    13     6    20
 C    -2.59500   3.81800   0.14470    11     6    12     4
 C    -3.13320   3.16000   1.18960    12    11     7    21
 C     0.77560   4.14120   1.10330    13    10    34    65
 C    -3.85460   1.20040   1.91510    14     7    15    22
 C    -4.10010  -0.14300   1.65920    15    19    14    16
 C    -4.46160  -0.57600   0.34680    16     8    15    17
 C    -4.02670  -1.86640  -0.10270    17    18    28    16
 C    -3.62470  -1.93790  -1.45260    18    47     1    17
 C    -3.36420  -0.99940   2.41970    19    15    27    25
 C    -1.02010   3.24100   2.40270    20    21    10    23
 C    -2.34140   2.83150   2.26400    21    22    12    20
 C    -2.79330   1.63060   2.73410    22    21    24    14
 C    -0.09150   2.38830   3.13280    23    35    20    36
 C    -1.94920   0.76790   3.39440    24    22    25    36
 C    -2.33570  -0.55330   3.27650    25    41    24    19
 C    -1.95360  -2.63280   2.73120    26    29    27    41
 C    -3.06660  -2.27490   2.02270    27    26    19    28
 C    -3.35520  -2.79020   0.74380    28    27    17    31
 C    -1.15020  -3.58640   2.27900    29    26    45    30
 C    -1.38120  -4.17520   1.07150    30    29    33    31
 C    -2.43400  -3.76650   0.23200    31    30    46    28
 C     0.14490  -4.52970  -0.66690    32    33    87    51
 C    -0.12980  -4.53830   0.63870    33    32    42    30
 C     1.69440   3.49300   1.89000    34    73    13    35
 C     1.30970   2.55200   2.88090    35    34    37    23
 C    -0.56710   1.09900   3.62930    36    24    39    23
 C     2.23470   1.48280   3.09160    37    38    75    35
 C     1.75090   0.22030   3.53020    38    92    37    39
 C     0.36830  -0.00550   3.81020    39    38    40    36
 C    -0.10810  -1.37370   3.71760    40    41    44    39
 C    -1.45920  -1.56580   3.44780    41    25    26    40
 C     0.83920  -4.13840   1.52360    42    33    45    94
 C     2.00580  -2.15400   2.94790    43    92    44    93
 C     0.71720  -2.44590   3.27480    44    43    45    40
 C     0.18010  -3.51620   2.56760    45    29    42    44
 C    -2.10470  -3.76040  -1.14680    46    47    51    31
 C    -2.68460  -2.79960  -1.93480    47    18    46    55
 C    -2.50310  -0.89710  -3.12050    48    55     1    60
 C    -1.32530   2.56700  -2.87190    49    50    56    68
 C    -1.70280   3.50440  -1.87470    50     4    62    49
 C    -0.82510  -4.12720  -1.55610    51    32    53    46
 C     0.55740   1.12900  -3.62780    52    67    59    68
 C    -0.16880  -3.49660  -2.60030    53    88    51    54
 C    -0.70720  -2.42240  -3.30500    54    55    53    58
 C    -1.99680  -2.15120  -2.97390    55    54    48    47
 C    -2.23840   1.49130  -3.08800    56    60     2    49
 C     1.46680  -1.53510  -3.45760    57    66    91    58
 C     0.11530  -1.34110  -3.73610    58    57    54    59
 C    -0.37390   0.02310  -3.81860    59    60    58    52
 C    -1.75650   0.23500  -3.53600    60    56    48    59
 C     0.52750   4.09600  -1.32920    61    62    65    71
 C    -0.79200   4.16530  -1.09040    62    61    50     6
 C     3.11800   3.18190  -1.17370    63    64    77    70
 C     2.57860   3.82140  -0.11460    64    65    63    73
 C     1.31880   4.25690  -0.18720    65    64    61    13
 C     2.33740  -0.51220  -3.28340    66    57    67    80
 C     1.94180   0.80830  -3.39020    67    69    66    52
 C     0.07790   2.41670  -3.12490    68    49    71    52
 C     2.78020   1.67190  -2.72030    69    70    67    85
 C     2.32620   2.87250  -2.25430    70    69    63    71
 C     1.00350   3.27110  -2.39510    71    70    61    68
 C     3.70010   2.40350   1.35970    72    73    75    79
 C     2.84310   3.39920   1.15360    73    72    64    34
 C     4.03500   0.33620   1.85840    74    76    75    78
 C     3.42240   1.47630   2.30780    75    72    74    37
 C     3.58210  -0.83020   2.25210    76    74    81    92
 C     4.01930   2.18930  -0.95490    77    79    63    85
 C     4.54130   0.48870   0.59070    78    79    74    83
 C     4.34770   1.80240   0.30320    79    77    78    72
 C     3.37020  -0.95930  -2.43120    80    84    90    66
 C     3.63540  -1.93300   1.44050    81    93    76    82
 C     4.03070  -1.84470   0.08950    82    81    89    83
 C     4.46140  -0.54920  -0.35610    83    78    84    82
 C     4.10090  -0.10540  -1.66220    84    80    85    83
 C     3.84540   1.23600  -1.90770    85    77    84    69
 C     2.43790  -3.73980  -0.26320    86    87    94    89
 C     1.38430  -4.14160  -1.11210    87    88    32    86
 C     1.16170  -3.56000  -2.32340    88    91    53    87
 C     3.35790  -2.75430  -0.77090    89    90    82    86
 C     3.06870  -2.23970  -2.04810    90    91    80    89
 C     1.97000  -2.60850  -2.75790    91    88    90    57
 C     2.51220  -0.90100   3.10820    92    43    76    38
 C     2.69890  -2.80550   1.90910    93    81    94    43
 C     2.11510  -3.75880   1.11770    94    93    42    86
