    94
C94-C1-15                                                                       
 C    -0.65440  -4.01940   0.99160     1     4    57     2
 C    -1.80790  -3.76940   0.26170     2     1    51     3
 C    -1.64480  -3.61570  -1.16850     3     6    14     2
 C     0.57730  -4.20910   0.41710     4     5    12     1
 C     0.72260  -4.07070  -0.89560     5     4     8     6
 C    -0.35390  -3.73600  -1.66470     6     5    20     3
 C     3.75750  -2.25420  -1.14790     7     9    93    28
 C     1.87580  -3.58340  -1.40580     8     5    27     9
 C     2.96010  -3.21880  -0.59860     9     7     8    10
 C     2.80760  -3.27650   0.80670    10    12     9    11
 C     3.42600  -2.26030   1.62010    11    13    92    10
 C     1.58630  -3.81010   1.25050    12    60     4    10
 C     2.69390  -1.88640   2.76240    13    76    59    11
 C    -2.50870  -2.79320  -1.90660    14    15     3    17
 C    -3.63240  -2.33040  -1.22870    15    16    14    53
 C    -4.29220  -1.18270  -1.59550    16    19    32    15
 C    -1.96840  -1.97380  -2.98080    17    18    21    14
 C    -2.61650  -0.76810  -3.20540    18    19    17    25
 C    -3.75750  -0.39810  -2.55970    19    16    33    18
 C     0.15140  -2.98870  -2.71430    20    27     6    21
 C    -0.60080  -2.00990  -3.34350    21    20    17    23
 C     1.54710  -0.82800  -3.67780    22    26    29    23
 C     0.12340  -0.84020  -3.80450    23    22    24    21
 C    -0.58130   0.42290  -3.80620    24    25    39    23
 C    -1.92880   0.38970  -3.54310    25    24    37    18
 C     2.15780   0.42340  -3.57070    26    89    38    22
 C     1.52150  -2.92370  -2.57160    27    29    20     8
 C     3.45380  -1.65250  -2.37690    28    88    29     7
 C     2.26560  -1.89830  -3.06620    29    27    28    22
 C    -4.90070   0.74750  -0.37290    30    47    31    32
 C    -4.34740   1.52080  -1.35740    31    33    35    30
 C    -4.86940  -0.61710  -0.49530    32    46    16    30
 C    -3.77520   0.95880  -2.44750    33    31    19    37
 C    -1.73210   3.74640  -0.47540    34    43    36    50
 C    -3.71020   2.58540  -0.78310    35    31    36    48
 C    -2.57800   3.14970  -1.36690    36    34    35    41
 C    -2.63100   1.45830  -3.00840    37    33    25    41
 C     1.44830   1.60660  -3.43470    38    39    26    82
 C     0.07880   1.66650  -3.52010    39    38    24    40
 C    -0.58360   2.73340  -2.79940    40    41    39    42
 C    -1.97880   2.59780  -2.53800    41    37    40    36
 C     0.23050   3.53210  -1.90400    42    43    83    40
 C    -0.41100   3.96460  -0.74220    43    34    78    42
 C    -4.24260  -0.81440   1.75080    44    46    54    45
 C    -4.25480   0.54950   1.87620    45    47    44    68
 C    -4.53750  -1.40340   0.56330    46    44    32    53
 C    -4.58320   1.33160   0.81640    47    45    48    30
 C    -3.86480   2.46830   0.60300    48    47    49    35
 C    -2.88530   2.89310   1.48850    49    50    48    67
 C    -1.88280   3.62480   0.90720    50    69    49    34
 C    -2.83550  -3.08820   0.94920    51    53     2    52
 C    -2.56770  -2.48790   2.24620    52    54    56    51
 C    -3.79390  -2.47740   0.15000    53    46    51    15
 C    -3.25790  -1.31620   2.54980    54    44    52    61
 C    -0.72510  -1.55000   3.62200    55    58    63    56
 C    -1.30970  -2.62890   2.85660    56    57    52    55
 C    -0.41320  -3.49280   2.23970    57    60     1    56
 C     0.66840  -1.52880   3.69950    58    66    59    55
 C     1.48680  -2.44390   3.09860    59    60    58    13
 C     0.94590  -3.40340   2.37300    60    59    12    57
 C    -2.65970  -0.24780   3.21970    61    63    68    54
 C    -0.63370   0.95250   3.78190    62    65    63    71
 C    -1.37840  -0.28510   3.72510    63    61    55    62
 C     1.59990   1.84630   3.36910    64    72    65    74
 C     0.78680   0.84690   3.85570    65    64    66    62
 C     1.40600  -0.38750   3.81940    66    58    65    76
 C    -2.53380   2.10070   2.63160    67    68    71    49
 C    -3.25090   0.91110   2.74430    68    45    61    67
 C    -0.66210   3.76860   1.46380    69    50    70    78
 C    -0.29560   3.09320   2.62340    70    72    69    71
 C    -1.21160   2.14920   3.17660    71    70    67    62
 C     1.06090   2.93510   2.73780    72    64    70    80
 C     3.09180   2.60080   1.92190    73    77    80    74
 C     2.87610   1.62940   2.85130    74    73    75    64
 C     3.46030   0.37190   2.72900    75    76    74    91
 C     2.67990  -0.61410   3.26720    76    75    13    66
 C     3.88990   2.38240   0.87640    77    73    85    94
 C     0.25270   4.08570   0.45960    78    79    43    69
 C     1.59530   3.90570   0.57850    79    78    80    86
 C     1.98170   3.37500   1.80220    80    73    72    79
 C     3.40550   1.84180  -2.41270    81    84    89    82
 C     2.21740   2.47220  -2.67090    82    81    38    83
 C     1.64060   3.39810  -1.80720    83    82    42    86
 C     4.07430   2.04690  -1.25590    84    81    85    90
 C     3.54980   2.91320  -0.35550    85    84    77    86
 C     2.35580   3.62390  -0.57280    86    85    79    83
 C     4.63250  -0.23400  -1.15180    87    90    88    93
 C     4.01130  -0.42560  -2.35380    88    28    89    87
 C     3.37430   0.60010  -2.96140    89    88    81    26
 C     4.67540   0.99720  -0.60080    90    87    94    84
 C     4.29500   0.07020   1.61840    91    94    75    92
 C     4.25530  -1.25520   1.03920    92    93    11    91
 C     4.43670  -1.33660  -0.35610    93    87     7    92
 C     4.52070   1.15640   0.74110    94    90    77    91
