    94
C94-C2v-24                                                                      
 C     3.12450   2.21870  -2.21900     1     2    12    22
 C     3.79260   1.07300  -2.22780     2     1     3    28
 C     3.24280  -0.00350  -2.86390     3    60     2     9
 C    -0.68460  -3.99030  -1.12110     4    77    62     5
 C    -0.13250  -3.38980  -2.25190     5     6     4    17
 C     1.23330  -3.32260  -2.23460     6     7     5    64
 C     1.90150  -2.31330  -2.86660     7     6    59     8
 C     1.23600  -1.22440  -3.46600     8     7     9    18
 C     1.94930   0.00980  -3.46430     9    21     8     3
 C     3.20280   3.03620   1.16590    10    29    16    11
 C     3.89600   2.67510   0.00380    11    12    10    27
 C     3.19630   3.05650  -1.14620    12     1    13    11
 C     2.02650   3.76280  -1.14720    13    15    12    25
 C     0.09490   4.28030   0.00830    14    15    26    47
 C     1.44160   4.17250   0.01750    15    14    13    16
 C     2.02740   3.74100   1.17450    16    15    10    40
 C    -0.90550  -2.40610  -2.93850    17     5    90    18
 C    -0.19210  -1.25260  -3.51370    18     8    19    17
 C    -0.88460   0.01380  -3.60440    19    92    18    20
 C    -0.19210   1.28080  -3.50530    20    21    19    23
 C     1.23590   1.24220  -3.45090    21    22     9    20
 C     1.89530   2.31900  -2.83280    22    25     1    21
 C    -0.91000   2.43190  -2.92580    23    24    94    20
 C    -0.13770   3.40950  -2.22860    24    25    26    23
 C     1.22820   3.33170  -2.21140    25    22    24    13
 C    -0.68860   4.00440  -1.09630    26    88    14    24
 C     4.60030   1.45130   0.00570    27    31    28    11
 C     4.56750   0.67580  -1.15650    28    51     2    27
 C     3.13990   2.20170   2.24300    29    30    10    32
 C     3.80980   1.05870   2.23410    30    29    38    31
 C     4.58290   0.66730   1.15800    31    49    30    27
 C     1.90990   2.29710   2.85830    32    40    29    36
 C    -0.87020  -0.01100   3.61080    33    34    35    54
 C    -2.22570  -0.00640   3.29710    34    45    72    33
 C    -0.17960   1.25590   3.51740    35    36    33    44
 C     1.24780   1.21440   3.46410    36    32    37    35
 C     1.95950  -0.01950   3.46060    37    53    36    38
 C     3.25040  -0.02190   2.85450    38    48    30    37
 C    -0.12910   3.38570   2.24940    39    40    47    44
 C     1.23620   3.30860   2.23650    40    32    39    16
 C    -3.87170   2.48210   0.70880    41    85    42    89
 C    -2.81010   2.99980   1.44260    42    46    41    43
 C    -2.27260   2.28990   2.57060    43    45    44    42
 C    -0.89930   2.40650   2.94330    44    39    43    35
 C    -2.92480   1.10280   2.84590    45    86    43    34
 C    -1.94010   3.74260   0.70400    46    47    42    88
 C    -0.68020   3.98240   1.11710    47    46    14    39
 C     3.80700  -1.09500   2.22240    48    52    38    49
 C     4.58700  -0.71140   1.14870    49    31    48    50
 C     4.60360  -1.48700  -0.01340    50    49    51    57
 C     4.56820  -0.70390  -1.17320    51    28    60    50
 C     3.13210  -2.23730   2.21370    52    48    56    55
 C     1.24460  -1.24990   3.45060    53    55    37    54
 C    -0.18350  -1.28170   3.50870    54    53    33    71
 C     1.90130  -2.32900   2.83080    55    66    52    53
 C     3.20520  -3.07370   1.13610    56    52    61    57
 C     3.89470  -2.70920  -0.02580    57    58    56    50
 C     3.20560  -3.06890  -1.18780    58    59    64    57
 C     3.13900  -2.23100  -2.26310    59    60    58     7
 C     3.80450  -1.08890  -2.25800    60    59     3    51
 C     2.02040  -3.76350   1.14660    61    63    56    66
 C     0.08830  -4.28260  -0.00850    62    63    70     4
 C     1.43640  -4.18200  -0.02050    63    62    64    61
 C     2.02930  -3.77040  -1.17940    64    63    58     6
 C    -0.13790  -3.40830   2.23070    65    66    70    71
 C     1.22710  -3.33650   2.21160    66    55    65    61
 C    -3.86620  -2.47400   0.69240    67    81    68    75
 C    -2.81330  -3.00540   1.42570    68    69    67    73
 C    -1.94530  -3.74690   0.68380    69    70    68    77
 C    -0.68990  -3.99690   1.09680    70    69    62    65
 C    -0.90410  -2.42870   2.92920    71    65    73    54
 C    -2.92060  -1.11890   2.84060    72    79    73    34
 C    -2.27570  -2.30520   2.55740    73    72    71    68
 C    -4.53850  -1.34990  -1.08280    74    75    78    80
 C    -3.87310  -2.47800  -0.71010    75    74    76    67
 C    -2.81940  -3.00340  -1.44010    76    77    75    90
 C    -1.94780  -3.74780  -0.71190    77     4    76    69
 C    -4.03560  -0.66130  -2.14710    78    82    74    91
 C    -4.03850  -0.68290   2.16590    79    86    81    72
 C    -5.01170  -0.66930   0.00570    80    84    81    74
 C    -4.53510  -1.35500   1.08900    81    67    79    80
 C    -4.04720   0.69650  -2.14920    82    78    83    93
 C    -4.54710   1.37110  -1.07590    83    89    82    84
 C    -5.01000   0.69390   0.01930    84    80    85    83
 C    -4.54360   1.36660   1.11350    85    86    41    84
 C    -4.04550   0.67940   2.17560    86    85    79    45
 C    -2.82400   3.02460  -1.42590    87    88    89    94
 C    -1.94980   3.76180  -0.69210    88    26    87    46
 C    -3.87860   2.49560  -0.69590    89    83    87    41
 C    -2.27890  -2.28910  -2.55920    90    91    17    76
 C    -2.92070  -1.09470  -2.82790    91    78    90    92
 C    -2.23650   0.01940  -3.28660    92    91    93    19
 C    -2.93260   1.13000  -2.83140    93    82    94    92
 C    -2.28480   2.31660  -2.55300    94    93    23    87
