    94
C94-C1-65                                                                       
 C    -4.13020  -0.65320  -2.02730     1    14     3     2
 C    -4.28920   0.67460  -1.75220     2     4     1     6
 C    -4.29340  -1.58440  -1.06040     3     1    58    22
 C    -4.63530   1.05930  -0.50580     4     2     5    59
 C    -4.07560   2.18990  -0.00130     5     4    65     8
 C    -3.36420   1.39260  -2.47370     6     2    15     7
 C    -2.76540   2.56900  -2.02170     7     6    17     8
 C    -3.16630   3.00850  -0.70330     8    10     5     7
 C    -1.04940   4.08470  -0.46430     9    10    94    16
 C    -2.24170   3.71140   0.08380    10     9     8    11
 C    -2.16070   3.44060   1.45870    11    64    92    10
 C    -1.08700  -1.69650  -3.48760    12    13    23    20
 C    -2.31610  -1.91250  -2.94360    13    12    14    21
 C    -3.13660  -0.79020  -2.93130    14     1    13    15
 C    -2.67310   0.48940  -3.25310    15    19     6    14
 C    -0.66870   3.67790  -1.74270    16    37    17     9
 C    -1.45190   2.84990  -2.52760    17    16     7    18
 C    -0.71970   1.93520  -3.38220    18    19    17    39
 C    -1.39370   0.72000  -3.69490    19    15    20    18
 C    -0.65200  -0.42960  -3.88640    20    41    19    12
 C    -2.42050  -2.91360  -1.93330    21    22    13    25
 C    -3.44160  -2.66370  -0.99920    22     3    44    21
 C     0.01640  -2.44500  -3.18690    23    12    34    24
 C     0.00570  -3.44110  -2.20550    24    23    29    25
 C    -1.25380  -3.64280  -1.51420    25    21    26    24
 C    -1.18910  -4.03480  -0.13080    26    27    43    25
 C     0.07600  -4.21520   0.41110    27    30    45    26
 C     2.46390  -2.94420  -2.00450    28    36    31    29
 C     1.28620  -3.67140  -1.60950    29    30    24    28
 C     1.24990  -4.08360  -0.27940    30    27    33    29
 C     3.46690  -2.71380  -1.03480    31    32    84    28
 C     3.31080  -3.09160   0.26380    32    33    31    54
 C     2.22990  -3.75880   0.63620    33    32    48    30
 C     1.12950  -1.70290  -3.51350    34    36    23    41
 C     3.17280  -0.79530  -2.91210    35    83    36    42
 C     2.36110  -1.92220  -2.97390    36    34    35    28
 C     0.70580   3.69250  -1.78320    37    87    16    38
 C     1.48150   2.86740  -2.59500    38    37    90    39
 C     0.74260   1.93640  -3.40250    39    40    38    18
 C     1.43610   0.72060  -3.70940    40    41    42    39
 C     0.69720  -0.43210  -3.89710    41    20    40    34
 C     2.71800   0.48240  -3.23870    42    91    40    35
 C    -2.19980  -3.61900   0.78540    43    44    47    26
 C    -3.30480  -2.96580   0.33690    44    43    22    57
 C     0.37640  -3.89950   1.72410    45    46    48    27
 C    -0.54830  -3.34910   2.49130    46    45    47    49
 C    -1.81810  -3.23600   2.07530    47    46    55    43
 C     1.67020  -3.54290   1.86100    48    45    33    51
 C    -0.21770  -2.32270   3.34250    49    66    46    50
 C     1.07900  -1.84170   3.46990    50    49    68    51
 C     2.10950  -2.52600   2.73100    51    53    48    50
 C     3.38530  -0.52870   2.69300    52    53    81    67
 C     3.26790  -1.84660   2.32330    53    52    54    51
 C     3.87750  -2.15890   1.09910    54    32    79    53
 C    -2.37410  -2.16910   2.75840    55    56    47    66
 C    -3.46910  -1.50500   2.28670    56    55    57    61
 C    -3.98600  -1.99390   1.07670    57    58    44    56
 C    -4.63170  -1.18560   0.20200    58    59    57     3
 C    -4.79140   0.12470   0.49050    59    58    62     4
 C    -2.47260   0.50300   3.30170    60    63    70    61
 C    -3.56460  -0.12540   2.58850    61    62    56    60
 C    -4.27870   0.64750   1.64610    62    65    59    61
 C    -2.23730   1.84250   3.00080    63    72    64    60
 C    -2.95580   2.51590   2.03850    64    65    11    63
 C    -3.92960   1.93480   1.35560    65    64    62     5
 C    -1.35490  -1.56850   3.49210    66    49    70    55
 C     2.37040   0.14170   3.38200    67    74    68    52
 C     1.17160  -0.45170   3.77210    68    67    50    69
 C    -0.00230   0.39540   3.88230    69    71    68    70
 C    -1.31860  -0.20620   3.75340    70    66    60    69
 C     0.14110   1.79420   3.53370    71    72    75    69
 C    -1.00530   2.44570   3.09300    72    63    71    92
 C     3.52680   1.60960   2.18950    73    76    81    74
 C     2.46590   1.47990   3.06130    74    73    67    75
 C     1.37630   2.34760   3.07910    75    74    71    78
 C     3.51620   2.58030   1.26390    76    73    77    85
 C     2.48600   3.45660   1.23710    77    76    88    78
 C     1.40000   3.42900   2.12550    78    93    77    75
 C     4.50490  -1.22730   0.29650    79    84    54    80
 C     4.63520   0.10010   0.67530    80    79    81    86
 C     4.07990   0.39510   1.92240    81    73    52    80
 C     4.25720   0.67700  -1.63080    82    83    91    86
 C     4.12310  -0.64290  -1.94420    83    84    82    35
 C     4.26320  -1.59330  -1.01070    84    83    31    79
 C     4.00010   2.31940  -0.00260    85    86    76    89
 C     4.54790   1.09930  -0.33180    86    85    82    80
 C     1.14170   4.12250  -0.55260    87    88    94    37
 C     2.34050   3.77200  -0.09460    88    87    89    77
 C     3.19540   3.04890  -0.86610    89    88    85    90
 C     2.80240   2.57950  -2.12380    90    91    89    38
 C     3.39370   1.38990  -2.46440    91    42    90    82
 C    -0.97260   3.48000   2.16320    92    93    11    72
 C     0.19210   3.93740   1.63200    93    92    94    78
 C     0.09310   4.27880   0.28130    94    87     9    93
