    94
C94-C1-79                                                                       
 C     0.45330  -2.52630  -3.07040     1     2    55     6
 C    -0.92750  -2.64770  -2.95590     2     3    43     1
 C    -1.80380  -1.62970  -3.24090     3     2     8    33
 C     3.04730  -1.90670  -2.36500     4    11    54     5
 C     2.36050  -0.97370  -3.18350     5     4    12     6
 C     0.99510  -1.27400  -3.53980     6     5     1     7
 C     0.06820  -0.18520  -3.83000     7     9     6     8
 C    -1.37550  -0.37930  -3.66460     8     3    17     7
 C     0.57960   1.15030  -3.71880     9    10    13     7
 C    -0.37040   2.14210  -3.42820    10    16    26     9
 C     4.05460  -1.58100  -1.48950    11    14    61     4
 C     2.82530   0.37270  -3.07170    12    13    15     5
 C     1.91940   1.42190  -3.31920    13    12    31     9
 C     4.45220  -0.30810  -1.38160    14    11    15    92
 C     3.87510   0.64300  -2.14930    15    14    85    12
 C    -1.70840   1.92910  -3.25590    16    10    17    19
 C    -2.29190   0.67800  -3.35150    17    16     8    18
 C    -3.48520   0.45580  -2.57050    18    32    21    17
 C    -2.17120   2.91560  -2.40060    19    20    27    16
 C    -3.21410   2.67530  -1.62210    20    19    21    23
 C    -3.88370   1.50220  -1.71010    21    20    34    18
 C    -1.87400   3.61670   1.49030    22    82    24    39
 C    -3.21320   3.15460  -0.33140    23    20    37    24
 C    -2.13140   3.88140   0.16240    24    22    23    30
 C     1.14490   3.45700  -2.22000    25    26    31    28
 C    -0.07250   3.26620  -2.67760    26    25    27    10
 C    -1.14060   3.69050  -1.96860    27    26    19    30
 C     1.36080   3.98950  -0.96370    28    89    25    29
 C     0.29670   4.30550  -0.12210    29    28    81    30
 C    -1.02870   4.20390  -0.65970    30    27    24    29
 C     2.13720   2.61110  -2.57320    31    25    86    13
 C    -3.80390  -0.83180  -2.11700    32    33    18    36
 C    -2.96640  -1.85200  -2.49370    33    32    42     3
 C    -4.40710   1.29380  -0.45960    34    35    21    37
 C    -4.64510   0.05440  -0.03230    35    34    36    51
 C    -4.40180  -1.01560  -0.85940    36    35    40    32
 C    -3.95290   2.25310   0.41050    37    34    23    38
 C    -3.63880   1.93100   1.73190    38    39    37    50
 C    -2.58560   2.66010   2.23290    39    75    38    22
 C    -4.12210  -2.09320  -0.04410    40    45    41    36
 C    -3.29890  -3.12950  -0.43260    41    40    42    48
 C    -2.76570  -2.97880  -1.71600    42    43    33    41
 C    -1.54940  -3.47250  -2.04240    43    44    42     2
 C    -0.82620  -4.14370  -1.13830    44    43    56    49
 C    -4.11870  -1.62050   1.25030    45    46    51    40
 C    -3.24890  -2.12970   2.13850    46    45    47    52
 C    -2.44500  -3.17580   1.80310    47    46    48    62
 C    -2.46350  -3.73770   0.53370    48    49    47    41
 C    -1.24630  -4.24480   0.15640    49    44    48    64
 C    -3.82080   0.60410   2.19390    50    51    38    53
 C    -4.40330  -0.28940   1.27730    51    45    35    50
 C    -2.61590  -1.32240   3.04530    52    46    68    53
 C    -2.86380   0.05060   3.12470    53    52    76    50
 C     2.44330  -3.02220  -1.83540    54    55     4    59
 C     1.18340  -3.36940  -2.17880    55    54    56     1
 C     0.51410  -4.09670  -1.19750    56    44    57    55
 C     0.98900  -4.21070   0.10650    57    58    64    56
 C     2.20050  -3.73190   0.48370    58    57    59    66
 C     2.99080  -3.26410  -0.56630    59    61    58    54
 C     4.20780  -1.86720   0.84240    60    61    91    67
 C     3.98190  -2.38190  -0.38670    61    59    60    11
 C    -1.28050  -3.05830   2.55990    62    68    63    47
 C    -0.05390  -3.56330   2.16740    63    62    64    65
 C    -0.10140  -4.20950   0.93530    64    57    49    63
 C     1.15090  -2.93940   2.59760    65    63    66    70
 C     2.32530  -3.11270   1.77410    66    67    58    65
 C     3.35680  -2.18130   1.87570    67    73    60    66
 C    -1.38670  -1.90930   3.32170    68    69    62    52
 C    -0.27380  -1.21060   3.74990    69    68    79    70
 C     1.04160  -1.73840   3.43020    70    72    69    65
 C     1.87780   0.52550   3.59930    71    78    72    93
 C     2.13230  -0.81930   3.40530    72    73    71    70
 C     3.26170  -1.05440   2.65380    73    67    72    90
 C    -0.55460   2.81900   3.02690    74    77    75    82
 C    -1.72480   2.13030   3.15920    75    74    39    76
 C    -1.77560   0.80320   3.61130    76    75    53    79
 C     0.59480   2.27550   3.38380    77    74    83    78
 C     0.62060   0.98910   3.84940    78    71    77    79
 C    -0.51010   0.18840   3.94230    79    78    69    76
 C     1.81610   3.47950   1.67900    80    83    88    81
 C     0.54990   4.04000   1.24950    81    82    29    80
 C    -0.59440   3.70550   1.98610    82    74    22    81
 C     1.76480   2.60570   2.77500    83    77    93    80
 C     4.39230   1.51880  -0.12190    84    92    85    87
 C     3.94400   1.79160  -1.39430    85    86    15    84
 C     3.07200   2.75110  -1.59250    86    85    31    89
 C     3.82910   2.15490   1.00830    87    84    94    88
 C     2.88190   3.21660   0.77230    88    89    80    87
 C     2.57730   3.51210  -0.55580    89    28    86    88
 C     4.03170  -0.04110   2.06020    90    91    94    73
 C     4.61280  -0.57130   0.95240    91    92    90    60
 C     4.76930   0.20630  -0.14200    92    91    84    14
 C     2.61050   1.54720   2.96620    93    94    83    71
 C     3.66470   1.30300   2.13860    94    93    90    87
