    94
C94-Cs-40                                                                       
 C     4.12680   1.86350  -1.35000     1     2     4    14
 C     4.68260   0.83900  -0.68360     2     1     3    13
 C     4.50410  -0.43000  -1.14800     3     2    59    10
 C     3.35570   1.61700  -2.44210     4     1    16     5
 C     3.08140   0.31670  -2.95020     5    10     4    18
 C     3.30970  -2.84860  -1.15410     6    61    58     9
 C     0.95720  -3.22380  -2.43600     7    62    89     8
 C     1.78810  -2.20580  -2.94050     8     7    20     9
 C     3.06630  -2.02580  -2.28670     9    10     6     8
 C     3.70660  -0.76750  -2.28350    10     9     5     3
 C     4.13500   1.85730   1.35400    11    13    22    12
 C     3.61450   2.93460   0.67060    12    14    28    11
 C     4.68640   0.82920   0.68980    13    11    35     2
 C     3.60280   2.93960  -0.66950    14    12    17     1
 C     1.29480   2.45910  -3.03650    15    16    24    19
 C     2.44020   2.63410  -2.44120    16    15     4    17
 C     2.50830   3.41670  -1.31900    17    14    16    26
 C     1.80580   0.13610  -3.58020    18    19     5    20
 C     0.98730   1.27190  -3.64550    19    94    15    18
 C     1.10820  -1.12540  -3.58350    20     8    18    91
 C     1.30090   2.43880   3.04010    21    23    29    31
 C     3.36230   1.60290   2.44340    22    11    23    33
 C     2.44710   2.61800   2.44660    23    21    22    28
 C     0.16770   3.09490  -2.59090    24    86    15    25
 C     0.09810   3.81890  -1.37920    25    24    26    52
 C     1.34230   3.94070  -0.69880    26    27    17    25
 C     1.34900   3.93440   0.71920    27    26    28    30
 C     2.51710   3.40620   1.32880    28    12    23    27
 C     0.17300   3.07700   2.60010    29    47    21    30
 C     0.10210   3.80950   1.39320    30    29    27    53
 C     1.00000   1.24580   3.64120    31    40    21    32
 C     1.81400   0.10690   3.57360    32    31    33    36
 C     3.08740   0.29800   2.94300    33    34    22    32
 C     3.71070  -0.77860   2.25990    34    38    33    35
 C     4.50590  -0.44310   1.12310    35    13    59    34
 C     1.11450  -1.14850   3.56730    36    37    32    43
 C     1.79360  -2.22230   2.91470    37    39    36    38
 C     3.06470  -2.03870   2.25360    38    34    57    37
 C     0.95970  -3.23440   2.40780    39    55    45    37
 C    -0.34720   1.22970   3.72790    40    31    42    47
 C    -2.36790   0.19270   3.44070    41    69    42    48
 C    -1.04930   0.05920   3.80600    42    40    41    43
 C    -0.35320  -1.17140   3.67690    43    42    44    36
 C    -1.14160  -2.23150   3.08310    44    45    70    43
 C    -0.42650  -3.21140   2.45210    45    44    39    65
 C    -2.11180   2.47680   2.63080    46    47    48    49
 C    -0.86280   2.38480   3.12570    47    46    29    40
 C    -2.91120   1.38030   2.92790    48    85    46    41
 C    -2.30530   3.21590   1.42100    49    50    46    53
 C    -3.42050   2.80450   0.69120    50    54    84    49
 C    -2.30810   3.22110  -1.41270    51    54    88    52
 C    -1.17520   3.80180  -0.72030    52    25    51    53
 C    -1.17260   3.79810   0.73490    53    30    49    52
 C    -3.42490   2.80630  -0.68650    54    50    82    51
 C     1.29570  -3.99150   1.32270    55    56    60    39
 C     2.43060  -3.76280   0.66060    56    55    57    61
 C     3.30610  -2.84450   1.10850    57    56    58    38
 C     3.95180  -2.38600  -0.02010    58    59    57     6
 C     4.52920  -1.21790  -0.01450    59    58    35     3
 C     0.16420  -4.32440   0.65750    60    65    63    55
 C     2.43180  -3.76850  -0.70950    61    62     6    56
 C     1.28700  -3.98940  -1.35390    62    61    63     7
 C     0.15690  -4.31820  -0.69270    63    66    62    60
 C    -2.11990  -3.56870   0.71360    64    65    68    67
 C    -0.91880  -3.88450   1.33170    65    60    64    45
 C    -0.92100  -3.87000  -1.36320    66    63    67    89
 C    -2.12450  -3.56220  -0.74260    67    66    74    64
 C    -2.97180  -2.72450   1.43890    68    71    64    70
 C    -3.09830  -0.84470   2.92050    69    78    41    70
 C    -2.49200  -2.05890   2.63960    70    69    44    68
 C    -3.96780  -2.08990   0.68920    71    80    73    68
 C    -4.57770  -0.91450  -1.09440    72    75    79    73
 C    -3.97380  -2.08910  -0.70850    73    72    74    71
 C    -2.97870  -2.71660  -1.45720    74    73    67    77
 C    -4.11530  -0.27840  -2.18750    75    72    81    76
 C    -3.09490  -0.82020  -2.92180    76    75    92    77
 C    -2.49270  -2.04500  -2.65200    77    76    90    74
 C    -4.12050  -0.30270   2.19150    78    80    69    85
 C    -4.95330  -0.19620   0.00450    79    80    72    83
 C    -4.57960  -0.92330   1.08630    80    78    79    71
 C    -3.99350   1.08250  -2.18750    81    87    82    75
 C    -4.29680   1.80110  -1.08320    82    81    83    54
 C    -4.80830   1.17790   0.00980    83    82    84    79
 C    -4.29230   1.79860   1.10220    84    85    83    50
 C    -3.99130   1.06410   2.19530    85    48    84    78
 C    -0.86520   2.40050  -3.12240    86    88    24    94
 C    -2.91650   1.39670  -2.93250    87    81    88    92
 C    -2.11750   2.48950  -2.62680    88    86    87    51
 C    -0.43030  -3.19660  -2.48600    89    90     7    66
 C    -1.14390  -2.20990  -3.10670    90    89    77    91
 C    -0.36210  -1.14160  -3.69690    91    93    90    20
 C    -2.37610   0.21630  -3.45880    92    76    93    87
 C    -1.06020   0.08760  -3.82580    93    94    92    91
 C    -0.35550   1.25200  -3.74560    94    19    93    86
