    94
C94-C1-58                                                                       
 C     3.18780   3.10350  -0.32560     1     2     6    61
 C     2.22000   3.60590  -1.13230     2     1     3     9
 C     1.20920   4.27740  -0.44830     3     4     2    58
 C    -0.00520   4.45200  -0.98710     4     3     5    18
 C    -0.30150   3.87440  -2.17400     5    19     4    10
 C     3.95900   2.02650  -0.69450     6     1    63     7
 C     3.69440   1.26950  -1.85650     7     6    14     8
 C     2.58250   1.70100  -2.67850     8     9     7    12
 C     1.90700   2.91250  -2.34520     9    10     8     2
 C     0.60090   3.06830  -2.79610    10     5    28     9
 C     2.25840  -0.61300  -3.27760    11    29    12    13
 C     1.81300   0.69090  -3.39520    12    11    27     8
 C     3.34390  -0.99520  -2.51040    13    14    11    94
 C     4.06950  -0.09850  -1.76710    14    13    15     7
 C     4.58340  -0.62310  -0.56300    15    64    91    14
 C    -2.17040   4.04720  -0.22530    16    18    34    17
 C    -2.49570   3.53480  -1.46120    17    19    26    16
 C    -0.93020   4.46230   0.01230    18    16     4    43
 C    -1.54630   3.39440  -2.39220    19    17     5    20
 C    -1.47960   2.24920  -3.13140    20    19    28    24
 C    -2.68450  -1.20600  -2.82740    21    22    37    23
 C    -1.99490  -2.42330  -2.74210    22    32    83    21
 C    -1.94610  -0.09040  -3.37320    23    24    21    31
 C    -2.41720   1.21150  -3.02730    24    20    23    25
 C    -3.49720   1.39870  -2.08700    25    36    26    24
 C    -3.43460   2.58190  -1.30570    26    17    35    25
 C     0.40520   0.84180  -3.69740    27    28    12    31
 C    -0.13200   2.06330  -3.41480    28    27    10    20
 C     1.41760  -1.69220  -3.39920    29    11    87    30
 C     0.05200  -1.55800  -3.61560    30    32    29    31
 C    -0.52560  -0.27380  -3.75020    31    30    27    23
 C    -0.69830  -2.60150  -3.11920    32    22    30    90
 C    -4.26060   1.55380   0.59520    33    35    38    39
 C    -2.86310   3.39830   0.72760    34    16    35    41
 C    -3.74110   2.60610   0.03710    35    33    34    26
 C    -4.13060   0.28530  -1.49830    36    25    37    38
 C    -3.76550  -1.02690  -1.88960    37    36    56    21
 C    -4.57190   0.44000  -0.14830    38    55    33    36
 C    -3.88270   1.19760   1.87050    39    48    33    40
 C    -2.80780   1.83490   2.54630    40    41    39    51
 C    -2.28680   3.01120   1.97090    41    40    34    42
 C    -0.92980   3.38360   2.20020    42    43    41    45
 C    -0.31130   4.17410   1.19960    43    58    18    42
 C    -0.57200   1.28770   3.51040    44    51    45    52
 C    -0.05140   2.54950   2.98310    45    46    42    44
 C     1.36680   2.68010   2.76340    46    47    57    45
 C     2.17800   1.60860   3.12060    47    59    53    46
 C    -4.16900  -0.11420   1.94700    48    49    39    55
 C    -3.40020  -0.90430   2.71120    49    48    78    50
 C    -2.30410  -0.38250   3.34700    50    49    66    51
 C    -1.94790   0.97710   3.30620    51    50    44    40
 C     0.34260   0.16540   3.72480    52    53    67    44
 C     1.68170   0.39380   3.54260    53    52    47    69
 C    -4.35060  -1.82380   0.35290    54    55    56    77
 C    -4.62800  -0.58060   0.73930    55    54    38    48
 C    -3.95740  -2.06650  -0.93220    56    84    54    37
 C     1.90660   3.49180   1.71300    57    58    61    46
 C     1.03230   4.16340   0.93850    58    57    43     3
 C     3.40770   1.36400   2.55940    59    60    62    47
 C     3.84270   2.09090   1.50480    60    61    59    63
 C     3.07900   3.10000   1.07370    61    60    57     1
 C     3.66260   0.03270   2.61290    62    65    59    69
 C     4.45260   1.46460   0.45990    63    64    60     6
 C     4.73040   0.15560   0.53440    64    63    15    65
 C     4.36580  -0.57670   1.63150    65    75    62    64
 C    -1.38610  -1.42560   3.42950    66    67    50    81
 C    -0.04430  -1.21700   3.59000    67    66    52    71
 C     2.22110  -1.90060   2.88960    68    69    71    74
 C     2.59380  -0.59490   3.19790    69    62    53    68
 C     0.28180  -3.34310   2.32280    70    72    80    71
 C     0.85230  -2.25350   3.09890    71    68    70    67
 C     1.10500  -3.88370   1.33050    72    73    85    70
 C     2.39920  -3.48550   1.11630    73    74    72    92
 C     3.02270  -2.54270   1.89030    74    73    75    68
 C     4.04610  -1.82940   1.25270    75    65    91    74
 C    -2.90590  -3.50730   0.45890    76    77    84    79
 C    -3.66040  -2.66260   1.19520    77    76    78    54
 C    -3.15830  -2.18610   2.35700    78    49    77    81
 C    -1.65470  -3.99470   0.88440    79    86    76    80
 C    -1.11750  -3.46220   2.11930    80    81    70    79
 C    -1.91490  -2.53570   2.77580    81    78    80    66
 C    -1.08670  -4.02300  -1.46290    82    83    90    86
 C    -2.23740  -3.37090  -1.76700    83    84    82    22
 C    -3.16360  -3.17290  -0.85950    84    83    56    76
 C     0.58580  -4.34390   0.12860    85    86    88    72
 C    -0.75690  -4.35370  -0.13380    86    85    79    82
 C     1.97270  -2.74780  -2.68900    87    94    89    29
 C     1.54780  -4.10560  -0.83990    88    92    89    85
 C     1.18140  -3.70540  -2.11290    89    90    87    88
 C    -0.14290  -3.63910  -2.37310    90    89    82    32
 C     4.26010  -1.90730  -0.12370    91    93    75    15
 C     2.67990  -3.62390  -0.24220    92    88    93    73
 C     3.55250  -2.77380  -0.89040    93    91    94    92
 C     3.13580  -2.30920  -2.12050    94    87    93    13
