    94
C94-C1-35                                                                       
 C    -3.66310   2.35700  -1.36880     1     2     4    13
 C    -4.35550   1.34990  -0.84150     2     1     3    23
 C    -4.31720   0.12350  -1.44960     3     2    59    10
 C    -2.89120   2.13810  -2.47570     4    15     1     5
 C    -2.70970   0.87180  -3.09080     5    10     4    19
 C    -3.43830  -2.41630  -1.65900     6    61    58     9
 C    -1.02110  -2.91090  -2.77570     7    62    89     8
 C    -1.69520  -1.76670  -3.24040     8     7    21     9
 C    -2.99830  -1.51210  -2.66370     9    10     6     8
 C    -3.48600  -0.18890  -2.56730    10     9     5     3
 C    -2.00390   3.63500   1.45290    11    24    18    12
 C    -3.16410   3.21060   0.81340    12    13    11    22
 C    -3.08810   3.31540  -0.56270    13    16     1    12
 C    -0.73850   2.83880  -2.93690    14    15    20    35
 C    -1.90290   3.06950  -2.37140    15    14     4    16
 C    -1.96350   3.77820  -1.20530    16    15    13    17
 C    -0.79530   4.19570  -0.56310    17    18    16    36
 C    -0.86980   4.11360   0.80520    18    17    40    11
 C    -1.42480   0.60720  -3.66850    19    20     5    21
 C    -0.50170   1.66220  -3.59990    20    94    14    19
 C    -0.86010  -0.71490  -3.72970    21     8    19    91
 C    -3.86530   2.11670   1.37840    22    23    26    12
 C    -4.47980   1.21570   0.52390    23    44     2    22
 C    -1.54900   3.02880   2.58080    24    25    11    27
 C    -2.19270   1.96690   3.08200    25    24    26    28
 C    -3.33590   1.50510   2.50930    26    25    42    22
 C    -0.19210   3.11790   2.66040    27    24    40    30
 C    -1.48710   0.94370   3.63950    28    25    48    29
 C    -0.11110   0.98700   3.79060    29    28    50    30
 C     0.58440   2.16280   3.30660    30    27    33    29
 C     3.57000   2.43280   1.18550    31    84    41    32
 C     2.43040   2.91460   1.82080    32    31    39    33
 C     1.92880   2.11910   2.93360    33    34    30    32
 C     2.57250   0.91530   3.20070    34    85    33    49
 C     0.41950   3.34230  -2.40170    35    86    14    36
 C     0.47400   3.99760  -1.16080    36    35    17    38
 C     2.78480   3.12110  -1.00990    37    41    88    38
 C     1.67600   3.79710  -0.39610    38    37    36    39
 C     1.52910   3.69380   1.04480    39    40    32    38
 C     0.25200   3.83130   1.55690    40    18    39    27
 C     3.74830   2.52960  -0.18980    41    82    31    37
 C    -3.37730   0.13990   2.75100    42    43    26    48
 C    -4.01240  -0.74630   1.91260    43    42    46    44
 C    -4.57450  -0.13480   0.77530    44    59    23    43
 C    -2.31820  -2.41480   2.56490    45    47    52    46
 C    -3.50790  -2.05590   1.82230    46    43    57    45
 C    -1.51720  -3.41980   2.02300    47    55    54    45
 C    -2.21480  -0.20990   3.44010    48    28    52    42
 C     1.88350  -0.24260   3.56490    49    50    69    34
 C     0.52930  -0.27820   3.81900    50    49    29    51
 C    -0.18100  -1.51270   3.56250    51    50    52    53
 C    -1.61320  -1.46040   3.35940    52    48    45    51
 C     0.57320  -2.58390   2.94620    53    54    70    51
 C    -0.14090  -3.48080   2.18340    54    53    47    65
 C    -1.79770  -4.03450   0.83540    55    56    60    47
 C    -2.85100  -3.63110   0.10500    56    55    57    61
 C    -3.69180  -2.68880   0.57410    57    56    58    46
 C    -4.14840  -2.01390  -0.54120    58    59    57     6
 C    -4.56730  -0.77210  -0.44150    59    58     3    44
 C    -0.63710  -4.38830   0.24200    60    55    63    65
 C    -2.70460  -3.47540  -1.24910    61    62     6    56
 C    -1.52380  -3.73910  -1.81190    62    61    63     7
 C    -0.49500  -4.24430  -1.09370    63    66    60    62
 C     1.67870  -3.81520   0.57310    64    65    68    67
 C     0.40730  -4.09090   1.05120    65    60    64    54
 C     0.67600  -3.83670  -1.61970    66    63    67    89
 C     1.83530  -3.69400  -0.86910    67    66    74    64
 C     2.50890  -3.09010   1.43920    68    71    64    70
 C     2.58990  -1.31170   3.04750    69    78    49    70
 C     1.95260  -2.46680   2.62880    70    69    53    68
 C     3.62170  -2.49530   0.84620    71    80    68    73
 C     4.53710  -1.27130  -0.75220    72    75    79    73
 C     3.78820  -2.40340  -0.53640    73    72    74    71
 C     2.82550  -2.87900  -1.42480    74    73    67    77
 C     4.25850  -0.51930  -1.83930    75    72    81    76
 C     3.27320  -0.90520  -2.70820    76    75    92    77
 C     2.52770  -2.07200  -2.59540    77    76    90    74
 C     3.72210  -0.82160   2.46930    78    80    69    85
 C     4.86100  -0.66100   0.42180    79    80    72    83
 C     4.27440  -1.41490   1.38860    80    78    79    71
 C     4.28280   0.84460  -1.75180    81    87    82    75
 C     4.53860   1.45460  -0.56630    82    81    83    41
 C     4.84850   0.70820   0.52500    83    82    84    79
 C     4.25150   1.30430   1.59070    84    85    83    31
 C     3.71240   0.54270   2.56530    85    84    34    78
 C     1.41770   2.56740  -2.88860    86    35    88    94
 C     3.33130   1.33100  -2.57660    87    81    88    92
 C     2.62990   2.48810  -2.28390    88    86    87    37
 C     0.36120  -3.01960  -2.70930    89    90     7    66
 C     1.21870  -2.06210  -3.17480    90    89    77    91
 C     0.60600  -0.87430  -3.73290    91    93    90    21
 C     2.71880   0.24350  -3.22230    92    76    93    87
 C     1.43100   0.28190  -3.70960    93    94    92    91
 C     0.84310   1.51100  -3.60970    94    20    93    86
