    94
C94-C1-28                                                                       
 C     0.08940   4.04950  -1.38920     1     2     8    63
 C     1.39730   3.77690  -1.42920     2     1     3     7
 C     2.05010   3.95830  -0.20730     3     4    60     2
 C     3.22050   3.37700   0.04000     4     3     5    32
 C     3.82740   2.62390  -0.89520     5     4    11     6
 C     3.10960   2.27240  -2.03330     6    14     7     5
 C     1.86690   2.78780  -2.34300     7     6     2    22
 C    -0.80130   3.44420  -2.23450     8    65     1     9
 C    -0.45350   2.33150  -3.04030     9     8    22    21
 C     4.57260  -0.64430  -1.10240    10    12    15    28
 C     4.61650   1.60040  -0.51200    11     5    12    30
 C     4.45150   0.63440  -1.45540    12    10    11    14
 C     2.60190   0.10040  -3.00870    13    14    19    26
 C     3.47860   1.00150  -2.37440    14     6    12    13
 C     3.83930  -1.58060  -1.74310    15    10    38    19
 C    -0.53630  -2.63730  -2.97230    16    27    90    17
 C     0.52560  -1.78630  -3.32370    17    16    18    25
 C     1.81130  -2.20620  -2.86930    18    19    42    17
 C     2.84690  -1.27910  -2.72410    19    18    15    13
 C    -2.77660   1.68900  -2.69760    20    66    92    21
 C    -1.50540   1.38500  -3.26580    21    20    24     9
 C     0.92740   1.96220  -3.08740    22     9     7    26
 C    -2.23670  -0.94670  -3.15080    23    27    94    24
 C    -1.19760   0.01270  -3.50740    24    21    23    25
 C     0.20920  -0.39630  -3.57790    25    17    26    24
 C     1.28090   0.57510  -3.39250    26    13    25    22
 C    -1.83120  -2.23820  -2.88230    27    16    23    88
 C     4.72160  -1.01630   0.22150    28    33    29    10
 C     4.67070  -0.05900   1.16640    29    28    30    34
 C     4.68440   1.24630   0.82110    30    29    31    11
 C     3.89950   1.90070   1.71570    31    32    30    47
 C     3.21230   2.98010   1.35730    32    31    46     4
 C     4.10880  -2.19580   0.39770    33    28    38    36
 C     3.81580  -0.23810   2.24190    34    47    35    29
 C     3.12400  -1.41730   2.46630    35    34    49    36
 C     3.34020  -2.50990   1.54080    36    40    33    35
 C     2.72410  -3.46650  -0.98060    37    38    42    39
 C     3.70030  -2.61230  -0.84820    38    37    15    33
 C     2.08690  -4.00920   0.09950    39    37    81    40
 C     2.34370  -3.47690   1.36740    40    41    39    36
 C     1.22070  -3.41240   2.14520    41    40    48    84
 C     1.84230  -3.34600  -2.01410    42    91    37    18
 C    -2.09180   3.36940   1.76040    43    58    61    44
 C    -0.73660   3.52460   2.03700    44    43    59    56
 C     1.33980   2.42530   2.82100    45    46    56    51
 C     2.00370   3.27260   1.90010    46    32    60    45
 C     3.30160   1.00160   2.57690    47    31    34    51
 C     1.00500  -2.34430   3.00160    48    52    41    49
 C     1.87500  -1.27340   3.15700    49    48    35    50
 C     1.27960   0.02940   3.48030    50    51    54    49
 C     2.01980   1.19610   3.13670    51    47    50    45
 C    -0.34100  -2.24270   3.18770    52    48    53    78
 C    -0.94120  -1.04640   3.52520    53    71    52    54
 C    -0.16080   0.15070   3.63040    54    53    50    55
 C    -0.84680   1.41250   3.35910    55    57    56    54
 C    -0.07940   2.54570   2.89370    56    45    55    44
 C    -2.25100   1.36620   3.03030    57    72    58    55
 C    -2.84350   2.34130   2.24510    58    43    57    70
 C     0.00350   4.19130   1.02190    59    60    63    44
 C     1.32770   4.03200   0.98280    60    59    46     3
 C    -2.68020   3.75600   0.56770    61    62    64    43
 C    -1.88290   4.16470  -0.43440    62    63    61    65
 C    -0.59480   4.39040  -0.21760    63    62    59     1
 C    -3.74130   2.95090   0.31160    64    61    70    67
 C    -2.03090   3.62600  -1.67830    65    66     8    62
 C    -3.02310   2.78210  -1.91350    66    65    67    20
 C    -3.95010   2.48080  -0.95720    67    77    66    64
 C    -3.98880  -0.09400   2.08670    68    73    69    72
 C    -4.45810   0.84350   1.18830    69    70    68    76
 C    -3.90600   2.09340   1.35900    70    64    69    58
 C    -2.27720  -1.01930   3.18430    71    72    53    80
 C    -2.91660   0.15660   2.95000    72    71    57    68
 C    -3.95020  -1.42650   1.80160    73    74    80    68
 C    -4.29230  -1.87300   0.57440    74    73    85    75
 C    -4.62990  -0.95310  -0.39130    75    74    76    93
 C    -4.76120   0.39330  -0.13220    76    75    77    69
 C    -4.38970   1.22690  -1.17810    77    67    76    92
 C    -0.97590  -3.24680   2.44310    78    84    79    52
 C    -2.27350  -3.14520   2.00250    79    78    80    86
 C    -2.92820  -2.02500   2.47480    80    73    79    71
 C     0.84700  -4.42420  -0.30680    81    39    91    83
 C    -1.56430  -4.25150  -0.04080    82    83    89    86
 C    -0.27440  -4.45230   0.50640    83    81    84    82
 C    -0.01360  -3.92530   1.76220    84    78    83    41
 C    -3.60750  -2.93430   0.04700    85    74    87    86
 C    -2.60870  -3.65800   0.72000    86    85    79    82
 C    -3.51150  -2.64330  -1.28900    87    88    93    85
 C    -2.46150  -3.07370  -1.96830    88    87    89    27
 C    -1.55570  -3.91190  -1.41750    89    88    90    82
 C    -0.41560  -3.73160  -2.13010    90    91    89    16
 C     0.74930  -4.03200  -1.62410    91    90    42    81
 C    -3.69420   0.74080  -2.29830    92    94    20    77
 C    -4.05120  -1.42830  -1.56500    93    87    75    94
 C    -3.46010  -0.57520  -2.50950    94    92    93    23
