    94
C94-C2-20                                                                       
 C    -3.84410  -2.24960   1.21400     1     7     2    58
 C    -2.76130  -2.58620   2.01880     2     3     1    10
 C    -1.84200  -3.41480   1.45430     3     2     4    55
 C    -0.55150  -3.50910   1.87630     4     3    29     6
 C    -0.89600  -1.67470   3.39110     5    10    11     6
 C    -0.00790  -2.70260   2.87750     6     4    14     5
 C    -4.53860  -1.08310   1.36960     7     8     1    60
 C    -4.07170  -0.18230   2.27440     8     7    92     9
 C    -2.95960  -0.45390   3.03700     9     8    22    10
 C    -2.26890  -1.66540   2.98980    10     9     2     5
 C    -0.29790  -0.41680   3.78620    11    12    23     5
 C     1.08080  -0.36030   3.76910    12    11    13    26
 C     1.90210  -1.39510   3.37020    13    16    12    14
 C     1.40280  -2.57570   2.84020    14    13     6    15
 C     2.21000  -3.19140   1.82160    15    28    18    14
 C     3.09840  -0.84000   2.99360    16    17    19    13
 C     3.86700  -1.42940   2.06040    17    16    18    37
 C     3.42850  -2.57730   1.47560    18    17    30    15
 C     3.04010   0.51230   3.10070    19    16    26    20
 C     3.77790   1.32850   2.25340    20    21    19    36
 C     3.12370   2.51860   1.98490    21    80    20    27
 C    -2.31750   0.74660   3.29190    22    23     9    84
 C    -0.99320   0.83460   3.63850    23    22    11    24
 C    -0.28970   2.05120   3.30410    24    25    23    86
 C     1.12560   2.00280   3.30930    25    26    27    24
 C     1.77910   0.82150   3.58930    26    25    12    19
 C     1.86790   2.84170   2.49170    27    89    25    21
 C     1.55600  -3.86190   0.77380    28    29    32    15
 C     0.20520  -3.99980   0.83470    29    28     4    41
 C     3.92530  -2.54680   0.19360    30    31    18    33
 C     3.21600  -3.11800  -0.79670    31    30    32    52
 C     2.05970  -3.77600  -0.51780    32    31    39    28
 C     4.60250  -1.36260  -0.01710    33    30    37    34
 C     4.55480  -0.73420  -1.26700    34    35    33    51
 C     4.57980   0.65840  -1.20210    35    74    38    34
 C     4.57170   0.73200   1.23650    36    37    38    20
 C     4.59470  -0.65610   1.17760    37    17    33    36
 C     4.60580   1.36930  -0.00480    38    81    35    36
 C     1.22470  -3.65430  -1.61940    39    45    40    32
 C    -0.14150  -3.75050  -1.55810    40    39    41    42
 C    -0.62260  -4.02930  -0.28220    41    55    29    40
 C    -0.98280  -3.00700  -2.43870    42    43    40    48
 C    -2.33750  -2.80740  -2.04390    43    44    42    54
 C    -3.01360  -1.70750  -2.56260    44    56    50    43
 C     1.85850  -2.84480  -2.51980    45    39    47    52
 C     1.75880  -0.81900  -3.59550    46    47    63    53
 C     1.10230  -2.00470  -3.32020    47    46    45    48
 C    -0.31330  -2.03870  -3.30410    48    47    49    42
 C    -1.01650  -0.81890  -3.62780    49    50    64    48
 C    -2.33720  -0.72510  -3.26890    50    49    66    44
 C     3.76390  -1.33920  -2.28200    51    52    53    34
 C     3.11920  -2.52770  -2.02300    52    31    51    45
 C     3.02880  -0.50380  -3.11630    53    75    51    46
 C    -2.81420  -3.22240  -0.75850    54    55    58    43
 C    -1.88310  -3.73590   0.09730    55    41    54     3
 C    -4.10320  -1.12930  -1.96540    56    57    59    44
 C    -4.57260  -1.55390  -0.76300    57    56    58    60
 C    -3.87000  -2.55090  -0.15470    58    57    54     1
 C    -4.08430   0.20790  -2.24690    59    62    56    66
 C    -5.02550  -0.65450   0.15890    60    57    61     7
 C    -5.02170   0.68520  -0.12020    61    91    60    62
 C    -4.54090   1.10730  -1.33510    62    59    72    61
 C     1.06030   0.36460  -3.77380    63    78    64    46
 C    -0.31870   0.43080  -3.78210    64    63    49    68
 C    -2.28600   1.68650  -2.97900    65    66    71    68
 C    -2.97950   0.47640  -3.02170    66    59    50    65
 C    -0.02570   2.71090  -2.87310    67    69    77    68
 C    -0.91530   1.69020  -3.38600    68    65    67    64
 C    -0.56260   3.52010  -1.86890    69    70    82    67
 C    -1.85670   3.43040  -1.44310    70    71    69    93
 C    -2.78130   2.60190  -2.00470    71    70    72    65
 C    -3.85400   2.27280  -1.18260    72    62    71    90
 C     3.42630   2.57240  -1.50270    73    74    81    76
 C     3.86390   1.42630  -2.09370    74    75    73    35
 C     3.08460   0.85030  -3.02090    75    74    53    78
 C     2.20190   3.19240  -1.82980    76    83    73    77
 C     1.38660   2.57460  -2.84580    77    78    67    76
 C     1.88620   1.39920  -3.38530    78    75    63    77
 C     2.07100   3.78730   0.50030    79    80    83    89
 C     3.22740   3.12510   0.76610    80    81    79    21
 C     3.93190   2.54970  -0.22020    81    80    38    73
 C     0.19990   4.01180  -0.83320    82    83    69    87
 C     1.54890   3.87010  -0.78460    83    82    79    76
 C    -3.00360   1.72610   2.58880    84    92    22    85
 C    -2.32640   2.82310   2.06040    85    84    86    94
 C    -0.96390   3.01940   2.44080    86    88    85    24
 C    -0.62180   4.04390   0.28750    87    93    82    88
 C    -0.12700   3.76430   1.55700    88    89    87    86
 C     1.23600   3.66790   1.60640    89    27    88    79
 C    -3.87930   2.57910   0.18300    90    91    94    72
 C    -4.57900   1.58720   0.80760    91    92    90    61
 C    -4.10390   1.15420   2.00220    92    91     8    84
 C    -1.88440   3.75260  -0.08440    93    87    94    70
 C    -2.81280   3.24310   0.77810    94    93    90    85
