    94
C94-C2-121                                                                      
 C    -2.40940   3.48740  -1.13870     1     6     2    61
 C    -2.99390   2.53060  -1.93090     2     1     3     9
 C    -3.99380   1.78380  -1.29690     3     4    60     2
 C    -4.25140   0.49800  -1.65940     4     5     3    32
 C    -3.51060  -0.06760  -2.62780     5     4    18    10
 C    -1.13570   3.91770  -1.36670     6     1    66     7
 C    -0.28570   3.41500  -2.36180     7     6    14     8
 C    -0.80570   2.32410  -3.15280     8     9     7    12
 C    -2.16750   1.92970  -2.93630     9    10     2     8
 C    -2.48400   0.60880  -3.24190    10     5    26     9
 C     1.48390   1.56600  -3.39860    11    27    13    12
 C     0.13840   1.33220  -3.64650    12    11    25     8
 C     1.95650   2.63910  -2.66900    13    14    11    94
 C     1.09740   3.54270  -2.10080    14    13    15     7
 C     1.53480   4.02500  -0.85600    15    65    91    14
 C    -2.80420  -3.23290  -1.26080    16    33    17    22
 C    -3.66720  -2.19640  -1.54360    17    16    18    31
 C    -3.22460  -1.39550  -2.58490    18     5    17    19
 C    -2.00890  -1.56750  -3.22950    19    21    26    18
 C     0.24770  -2.42690  -3.15800    20    21    24    29
 C    -1.14650  -2.60590  -2.94810    21    19    22    20
 C    -1.61590  -3.45620  -1.94700    22    40    16    21
 C     2.43530  -2.79710  -2.15910    23    30    83    24
 C     1.12890  -3.24020  -2.35070    24    23    39    20
 C    -0.21890  -0.05110  -3.83550    25    26    12    29
 C    -1.55290  -0.33090  -3.63910    26    25    19    10
 C     2.42100   0.55620  -3.30230    27    11    28    87
 C     2.07560  -0.78260  -3.40270    28    27    30    29
 C     0.72910  -1.13780  -3.65390    29    28    25    20
 C     2.91020  -1.62490  -2.67820    30    23    28    90
 C    -4.37550  -1.59300  -0.47220    31    32    35    17
 C    -4.66280  -0.23670  -0.57080    32     4    44    31
 C    -2.59880  -3.66670   0.02000    33    34    36    16
 C    -3.17810  -3.03110   1.04820    34    33    35    53
 C    -4.06790  -2.02440   0.82120    35    34    42    31
 C    -1.34580  -4.15920   0.13780    36    33    40    37
 C    -0.61260  -4.02230   1.31910    37    38    36    52
 C     0.73540  -4.07650   1.13490    38    37    54    41
 C     0.59510  -4.04130  -1.29450    39    40    41    24
 C    -0.74600  -4.10190  -1.11470    40    39    22    36
 C     1.34080  -4.15980  -0.12040    41    84    39    38
 C    -3.96270  -1.15070   1.88410    42    43    35    46
 C    -4.25590   0.17910   1.75340    43    42    45    44
 C    -4.64500   0.63460   0.50310    44    60    32    43
 C    -3.47860   1.03510   2.50300    45    58    43    49
 C    -2.91620  -1.61010   2.69220    46    53    48    42
 C    -0.73210  -1.11550   3.64930    47    48    51    56
 C    -2.08420  -0.75240   3.40070    48    49    46    47
 C    -2.42320   0.58600   3.29440    49    68    48    45
 C     1.54980  -0.31280   3.61990    50    57    51    69
 C     0.21530  -0.02140   3.82010    51    50    67    47
 C    -1.14580  -3.22650   2.37750    52    53    37    56
 C    -2.44720  -2.78930   2.19150    53    46    34    52
 C     1.61340  -3.43800   1.96660    54    38    79    55
 C     1.13950  -2.58370   2.96390    55    57    54    56
 C    -0.25290  -2.41270   3.16800    56    55    52    47
 C     2.01270  -1.55340   3.23000    57    55    50    81
 C    -3.17350   2.30450   2.08330    58    45    59    62
 C    -3.57420   2.76990   0.84200    59    61    60    58
 C    -4.27830   1.89140   0.05890    60    59    44     3
 C    -2.68610   3.60040   0.22720    61    59    64     1
 C    -1.95760   2.65410   2.64930    62    63    68    58
 C    -1.09990   3.55950   2.07640    63    62    64    72
 C    -1.53640   4.03750   0.83070    64    66    61    63
 C     0.64530   4.33370   0.11410    65    66    15    73
 C    -0.64800   4.33470  -0.14270    66    65    64     6
 C    -0.14600   1.36040   3.63240    67    68    51    71
 C    -1.48820   1.59140   3.38920    68    49    62    67
 C     2.48670   0.62590   3.22420    69    74    50    70
 C     2.15930   1.94750   2.92280    70    69    71    77
 C     0.80050   2.34610   3.13420    71    70    72    67
 C     0.28620   3.43290   2.33480    72    73    63    71
 C     1.13850   3.92600   1.33720    73    78    65    72
 C     3.51880  -0.05810   2.62410    74    75    81    69
 C     4.25560   0.50390   1.64920    75    74    76    85
 C     3.98740   1.78870   1.29500    76    75    92    77
 C     2.98610   2.54480   1.91590    77    78    76    70
 C     2.41010   3.49600   1.11600    78    73    77    91
 C     2.80160  -3.23370   1.27850    79    84    80    54
 C     3.66910  -2.19740   1.55590    80    79    81    86
 C     3.23330  -1.38750   2.59260    81    74    80    57
 C     4.07140  -2.04210  -0.80300    82    83    90    86
 C     3.17780  -3.04810  -1.02200    83    84    82    23
 C     2.59340  -3.67710   0.00210    84    83    41    79
 C     4.66940  -0.23770   0.57110    85    75    88    86
 C     4.38290  -1.59290   0.48660    86    85    82    80
 C     3.47360   1.01420  -2.51270    87    94    89    27
 C     4.64180   0.61850  -0.51240    88    85    89    92
 C     4.24840   0.15690  -1.76040    89    90    87    88
 C     3.95860  -1.17270  -1.87400    90    89    82    30
 C     2.69070   3.59140  -0.24920    91    93    15    78
 C     4.26630   1.87850  -0.06840    92    93    88    76
 C     3.56800   2.74910  -0.86700    93    91    92    94
 C     3.16990   2.28510  -2.10450    94    87    93    13
