    94
C94-C1-30                                                                       
 C    -1.18160  -3.91120   1.43550     1     2     8    61
 C     0.14530  -4.06630   1.38880     2     1     3     7
 C     0.64030  -4.43970   0.13650     3     4    58     2
 C     1.91220  -4.25590  -0.19650     4     3     5    32
 C     2.78750  -3.75150   0.69060     5     4    11     6
 C     2.28760  -3.20600   1.86960     6    23     7     5
 C     0.96430  -3.28510   2.25460     7     6     2    18
 C    -1.77890  -3.04850   2.31540     8    63     1     9
 C    -1.03630  -2.09530   3.05430     9     8    18    17
 C     4.55030  -0.89960   0.83720    10    12    14    28
 C     3.83360  -3.02460   0.25030    11     5    12    30
 C     4.04990  -2.07730   1.19780    12    10    11    23
 C     4.36750   1.23450   0.64520    13    15    14    33
 C     4.21880   0.20050   1.53630    14    10    13    26
 C     3.80140   2.37510   0.88140    15    13    27    55
 C    -3.03100  -0.73180   2.80380    16    64    76    17
 C    -1.70210  -0.84630   3.28020    17    16    19     9
 C     0.38670  -2.19540   3.02760    18     9     7    21
 C    -0.95390   0.35030   3.45500    19    17    20    92
 C     0.50990   0.26930   3.50580    20    24    21    19
 C     1.19000  -1.00630   3.29660    21    22    18    20
 C     2.57320  -0.99530   2.85620    22    23    26    21
 C     3.06810  -2.12500   2.17730    23     6    12    22
 C     1.26030   1.47950   3.27480    24    94    25    20
 C     2.60860   1.45680   2.79490    25    26    27    24
 C     3.24560   0.23230   2.57750    26    25    14    22
 C     3.01650   2.55280   1.99130    27    89    15    25
 C     4.70430  -0.55730  -0.49310    28    33    29    10
 C     4.27410  -1.41740  -1.42410    29    28    30    48
 C     3.90810  -2.67090  -1.08280    30    29    31    11
 C     2.89700  -3.01750  -1.91120    31    32    30    38
 C     1.93650  -3.84130  -1.50780    32    31    37     4
 C     4.50450   0.75810  -0.63590    33    28    13    54
 C    -3.25440  -2.59420  -1.58130    34    46    35    59
 C    -2.02430  -3.13390  -1.92550    35    34    57    44
 C     0.23860  -2.69690  -2.82790    36    37    44    40
 C     0.66580  -3.72860  -1.96070    37    32    58    36
 C     2.55170  -1.94660  -2.71280    38    31    48    40
 C     0.89960  -0.37060  -3.47520    39    40    42    52
 C     1.24720  -1.72030  -3.17930    40    38    39    36
 C    -0.86330   1.23740  -3.43560    41    53    68    42
 C    -0.51430  -0.10280  -3.54880    42    41    39    43
 C    -1.55770  -1.06550  -3.23780    43    44    42    45
 C    -1.15200  -2.38270  -2.81630    44    36    43    35
 C    -2.86320  -0.56580  -2.83500    45    46    69    43
 C    -3.67850  -1.37180  -2.03280    46    34    67    45
 C     3.14320   0.42010  -2.59310    47    48    52    54
 C     3.44490  -0.93010  -2.42290    48    38    29    47
 C     1.26250   4.03370  -1.57320    49    86    91    50
 C     2.07330   3.02370  -2.16440    50    56    49    51
 C     1.40490   2.05720  -3.00510    51    53    52    50
 C     1.87310   0.72360  -3.19160    52    51    47    39
 C     0.03770   2.25170  -3.18150    53    87    41    51
 C     3.78460   1.35640  -1.70000    54    56    33    47
 C     3.35740   3.16830  -0.14630    55    90    15    56
 C     3.22730   2.62160  -1.45490    56    54    50    55
 C    -1.46210  -4.00480  -0.95300    57    58    61    35
 C    -0.15270  -4.25950  -0.99870    58    57    37     3
 C    -3.87170  -2.79770  -0.34610    59    60    62    34
 C    -3.16280  -3.41800   0.61530    60    61    59    63
 C    -2.01830  -4.02360   0.32250    61    60    57     1
 C    -4.62840  -1.71400  -0.05060    62    59    67    65
 C    -3.04170  -2.84320   1.85140    63    64     8    60
 C    -3.69890  -1.72230   2.11730    64    63    65    16
 C    -4.57070  -1.17950   1.22550    65    73    64    62
 C    -4.65620   0.46150  -0.90380    66    67    70    72
 C    -4.58050  -0.86460  -1.10530    67    66    62    46
 C    -2.10360   1.67610  -3.00480    68    69    77    41
 C    -3.10900   0.82240  -2.69230    69    68    70    45
 C    -3.98020   1.30900  -1.70260    70    66    80    69
 C    -4.01250   2.18030   0.33880    71    72    80    74
 C    -4.65870   0.98880   0.36610    72    73    71    66
 C    -4.52830   0.15490   1.41440    73    72    65    76
 C    -3.18450   2.62330   1.38620    74    82    71    75
 C    -2.90020   1.64780   2.42940    75    76    92    74
 C    -3.59260   0.46150   2.38160    76    75    73    16
 C    -1.95270   2.91350  -2.41500    77    87    68    79
 C    -2.02480   4.03080  -0.30010    78    85    79    82
 C    -2.69920   3.31280  -1.30350    79    80    77    78
 C    -3.69450   2.46260  -0.97960    80    79    71    70
 C    -1.13840   3.69490   1.89730    81    83    82    93
 C    -2.24360   3.61050   1.06540    82    81    74    78
 C     0.03420   4.27990   1.54700    83    88    81    84
 C     0.22960   4.71770   0.27200    84    85    83    91
 C    -0.75180   4.51250  -0.62880    85    84    86    78
 C    -0.08350   4.12270  -1.77530    86    87    49    85
 C    -0.66920   3.27180  -2.59470    87    86    77    53
 C     1.03770   3.68620   2.23130    88    89    83    94
 C     2.25840   3.61770   1.69980    89    88    27    90
 C     2.47540   4.02980   0.40610    90    91    55    89
 C     1.46070   4.51590  -0.30050    91    90    84    49
 C    -1.61910   1.59930   3.06030    92    93    75    19
 C    -0.82440   2.68340   2.81900    93    92    94    81
 C     0.53730   2.64690   2.97450    94    93    88    24
