    94
C94-C1-70                                                                       
 C    -1.16040   0.68340  -3.66360     1     2    19     9
 C    -2.09100   1.55070  -3.15090     2     1     3    34
 C    -1.73940   2.78100  -2.61480     3    70     2     6
 C    -1.20370   4.23760  -0.43090     4    69    59     5
 C    -0.12880   4.02460  -1.32900     5    15     4     6
 C    -0.40500   3.20670  -2.48460     6     3     8     5
 C     1.95800   2.55510  -2.57000     7    10     8    14
 C     0.61410   2.39390  -3.06760     8     6     7     9
 C     0.22380   1.11570  -3.68830     9    12     1     8
 C     2.86670   1.50190  -2.78490    10    90    11     7
 C     2.48180   0.30390  -3.33820    11    12    10    27
 C     1.20380   0.09210  -3.76800    12    11    13     9
 C     0.82450  -1.23190  -3.71300    13    18    12    29
 C     2.22940   3.37250  -1.41290    14    15    16     7
 C     1.16400   4.02940  -0.76950    15    14     5    17
 C     3.32900   2.97910  -0.59970    16    89    94    14
 C     1.24200   4.08430   0.65040    17    92    58    15
 C    -0.48100  -1.59870  -3.64040    18    13    21    19
 C    -1.53950  -0.69780  -3.61400    19    18     1    20
 C    -2.73960  -1.14250  -2.94300    20    23    33    19
 C    -0.49810  -2.82240  -3.03240    21    22    18    30
 C    -1.58510  -3.20710  -2.38480    22    21    25    23
 C    -2.69290  -2.40650  -2.34040    23    22    35    20
 C    -0.16060  -4.35880   0.60520    24    87    26    40
 C    -1.45830  -3.96690  -1.26720    25    22    39    26
 C    -0.19100  -4.31130  -0.76990    26    24    25    32
 C     3.28580  -0.71440  -2.79650    27    82    28    11
 C     2.81620  -2.00130  -2.55920    28    29    27    85
 C     1.59490  -2.23710  -3.10610    29    30    28    13
 C     0.75540  -3.18790  -2.62160    30    29    21    32
 C     2.22670  -3.60420  -0.75230    31    85    32    86
 C     0.99870  -3.91240  -1.44530    32    30    26    31
 C    -3.62230  -0.21480  -2.35640    33    34    20    37
 C    -3.29110   1.12950  -2.55890    34    47    33     2
 C    -3.33890  -2.72520  -1.16810    35    23    36    39
 C    -4.12410  -1.79420  -0.52650    36    35    38    37
 C    -4.33760  -0.53840  -1.13920    37    45    36    33
 C    -4.02640  -1.85070   0.87470    38    43    42    36
 C    -2.56560  -3.67380  -0.50070    39    41    25    35
 C    -1.26600  -4.02410   1.39540    40    41    67    24
 C    -2.48180  -3.68410   0.86670    41    40    39    42
 C    -3.20030  -2.72750   1.53440    42    41    38    66
 C    -4.09320  -0.73040   1.64430    43    44    38    51
 C    -4.41530   0.42330   1.09480    44    43    50    45
 C    -4.59330   0.53840  -0.27560    45    46    44    37
 C    -4.29990   1.82450  -0.55310    46    45    47    49
 C    -3.66790   2.13140  -1.71480    47    70    46    34
 C    -3.03520   3.45200   0.54200    48    49    56    69
 C    -3.92990   2.46630   0.60070    49    48    50    46
 C    -3.89960   1.57450   1.63010    50    49    44    53
 C    -3.20420  -0.80480   2.69510    51    66    43    52
 C    -2.51660   0.32560   3.20360    52    51    53    63
 C    -2.90500   1.58280   2.65120    53    55    50    52
 C    -0.64410   2.43260   3.11280    54    57    55    64
 C    -1.96350   2.63920   2.60070    55    53    56    54
 C    -2.10580   3.56730   1.52850    56    48    59    55
 C     0.36280   3.22690   2.53290    57    76    58    54
 C     0.14310   4.04670   1.44280    58    59    17    57
 C    -1.04310   4.17880   0.93740    59    58    56     4
 C     1.22060   0.88210   3.63050    60    65    75    64
 C     0.66460  -1.45980   3.67650    61    65    81    62
 C    -0.71250  -1.26880   3.71610    62    61    68    63
 C    -1.18770   0.09840   3.71570    63    52    62    64
 C    -0.21300   1.18210   3.67070    64    54    63    60
 C     1.58930  -0.45150   3.63950    65    61    60    71
 C    -2.69090  -2.06860   2.65600    66    68    51    42
 C    -0.79990  -3.41080   2.53860    67    77    40    68
 C    -1.46250  -2.35150   3.17000    68    66    67    62
 C    -2.46640   3.82430  -0.65160    69    70     4    48
 C    -2.74990   3.12630  -1.75750    70    69    47     3
 C     2.75050  -0.94550   3.04460    71    73    80    65
 C     4.31660  -0.74990   1.34600    72    91    78    73
 C     3.66600  -0.14380   2.43190    73    71    72    74
 C     3.42090   1.24270   2.43290    74    73    93    75
 C     2.20070   1.73990   3.02930    75    76    60    74
 C     1.68690   2.90240   2.48830    76    57    75    92
 C     0.54510  -3.47770   2.46810    77    81    67    87
 C     3.94110  -2.00370   0.84200    78    79    84    72
 C     3.01980  -2.79740   1.46200    79    78    80    86
 C     2.49130  -2.23840   2.63290    80    81    71    79
 C     1.26660  -2.54830   3.08160    81    77    80    61
 C     4.17600  -0.11810  -1.97880    82    27    83    90
 C     4.57000  -0.74850  -0.84370    83    82    91    84
 C     4.05210  -1.98390  -0.53360    84    83    78    85
 C     3.16980  -2.69470  -1.35710    85    84    28    31
 C     2.19300  -3.66740   0.69100    86    87    79    31
 C     0.98190  -4.03160   1.28380    87    24    77    86
 C     4.55710   1.32530   0.27040    88    91    93    89
 C     4.16750   1.95340  -0.89090    89    90    16    88
 C     3.95260   1.22860  -1.99230    90    89    82    10
 C     4.74860  -0.01140   0.28940    91    88    72    83
 C     2.22530   3.50470   1.36730    92    94    17    76
 C     3.93280   1.94250   1.31790    93    94    88    74
 C     3.28540   3.00920   0.77980    94    92    93    16
