    94
C94-C3-96                                                                       
 C    -2.89840  -2.99700  -0.93810     1     2    57     5
 C    -3.68390  -1.97410  -1.50520     2    48    19     1
 C    -0.74600  -3.99780   0.51270     3    56    16     4
 C    -0.58150  -3.92510  -0.86480     4     3     9     5
 C    -1.69200  -3.38230  -1.63030     5     6     1     4
 C    -1.38350  -2.69180  -2.85270     6     7    18     5
 C    -0.04770  -2.64140  -3.22560     7    10    20     6
 C     1.88110  -3.72850  -0.33200     8    11    14     9
 C     0.78370  -3.82020  -1.27790     9    10     4     8
 C     0.97910  -3.19150  -2.50250    10     7    13     9
 C     3.02770  -3.01620  -0.73290    11    12    94     8
 C     3.11550  -2.40020  -1.95260    12    13    29    11
 C     2.11470  -2.48450  -2.81830    13    12    23    10
 C     1.64190  -3.72300   1.06040    14    16     8    15
 C     2.48250  -2.97090   1.96020    15    17    93    14
 C     0.30460  -3.88990   1.41390    16    63     3    14
 C     1.82320  -2.41730   3.07770    17    62    90    15
 C    -2.17130  -1.59560  -3.30060    18    19    22     6
 C    -3.29440  -1.26170  -2.61730    19    18     2    32
 C     0.51140  -1.58000  -3.91560    20    21    23     7
 C    -0.22740  -0.50850  -4.18550    21    20    22    24
 C    -1.54330  -0.50730  -3.90730    22    21    30    18
 C     1.82320  -1.43340  -3.63950    23    20    13    26
 C     0.30410   0.75010  -4.08710    24    21    35    25
 C     1.64260   0.96880  -3.76440    25    24    43    26
 C     2.47620  -0.19060  -3.56000    26    23    28    25
 C     3.82840   1.05760  -2.04440    27    28    42    89
 C     3.56540  -0.14310  -2.66500    28    27    29    26
 C     3.87310  -1.26810  -1.88380    29    12    86    28
 C    -1.90220   0.81300  -3.68100    30    31    35    22
 C    -2.98310   1.15410  -2.92470    31    30    32    38
 C    -3.73590   0.05900  -2.47710    32    33    19    31
 C    -4.46570   0.09890  -1.34480    33    32    34    48
 C    -4.45330   1.22190  -0.59350    34    33    49    39
 C    -0.75010   1.57900  -3.73770    35    30    24    36
 C    -0.57720   2.73280  -2.98260    36    35    44    37
 C    -1.69000   3.11900  -2.12490    37    41    38    36
 C    -2.90210   2.33120  -2.13030    38    39    31    37
 C    -3.68480   2.30240  -0.96080    39    34    54    38
 C    -0.04190   4.12810  -0.68390    40    45    76    41
 C    -1.37920   3.82860  -0.91240    41    40    53    37
 C     3.03060   2.16560  -2.25540    42    82    27    43
 C     1.88610   2.17680  -3.07600    43    42    25    44
 C     0.78680   3.04120  -2.68420    44    45    36    43
 C     0.98540   3.78560  -1.52520    45    40    83    44
 C    -4.47200  -1.21220   0.59390    46    48    58    47
 C    -4.45420  -0.08360   1.36880    47    49    46    65
 C    -4.46460  -1.12880  -0.75040    48    46    33     2
 C    -4.45900   1.12860   0.76790    49    50    47    34
 C    -3.73410   2.13670   1.29040    50    49    51    54
 C    -2.97840   1.96560   2.45800    51    52    50    64
 C    -1.89210   2.78880   2.52660    52    51    66    55
 C    -2.17570   3.66860   0.25780    53    54    55    41
 C    -3.29890   2.91670   0.20910    54    53    39    50
 C    -1.53400   3.65220   1.50020    55    77    52    53
 C    -1.89370  -3.56140   1.15310    56    57     3    61
 C    -2.98110  -3.08400   0.48140    57    56    58     1
 C    -3.73390  -2.15810   1.21410    58    46    59    57
 C    -3.29790  -1.62100   2.43040    59    60    65    58
 C    -2.17150  -2.04240   3.05780    60    59    61    69
 C    -1.53640  -3.11080   2.41580    61    63    56    60
 C     0.51190  -2.59340   3.35090    62    63    17    70
 C    -0.22590  -3.35870   2.56010    63    62    61    16
 C    -2.89720   0.69300   3.09330    64    65    51    68
 C    -3.69010  -0.30120   2.48840    65    47    59    64
 C    -0.74350   2.45400   3.22570    66    52    80    67
 C    -0.57200   1.22460   3.85240    67    66    72    68
 C    -1.68690   0.29010   3.76720    68    69    64    67
 C    -1.37100  -1.11330   3.78300    69    70    60    68
 C    -0.03450  -1.45840   3.92920    70    73    62    69
 C     1.89010   1.58190   3.40980    71    74    79    72
 C     0.79380   0.81230   3.96880    72    73    67    71
 C     0.99420  -0.56290   4.04070    73    70    90    72
 C     3.03160   0.87360   2.98750    74    91    84    71
 C     1.82550   3.87200   0.55520    75    76    83    78
 C     0.51100   4.19220   0.58280    76    77    75    40
 C    -0.22200   3.89170   1.64780    77    76    55    80
 C     2.47170   3.18190   1.60170    78    75    85    79
 C     1.64160   2.78460   2.70980    79    80    71    78
 C     0.31060   3.17820   2.68720    80    77    66    79
 C     3.87700   2.28760  -0.16820    81    82    89    85
 C     3.12850   2.91970  -1.12100    82    83    42    81
 C     2.12890   3.70650  -0.76530    83    82    75    45
 C     3.82890   1.24420   1.92120    84    85    74    87
 C     3.56470   2.38280   1.19780    85    84    81    78
 C     4.35330  -1.20980  -0.59390    86    29    88    94
 C     4.35460   0.08390   1.34740    87    92    88    84
 C     4.61320   0.00970  -0.00510    88    89    86    87
 C     4.35690   1.13330  -0.75390    89    88    81    27
 C     2.13360  -1.18390   3.58490    90    91    17    73
 C     3.13610  -0.48700   3.07120    91    90    92    74
 C     3.88930  -1.00190   2.05790    92    91    87    93
 C     3.58100  -2.23500   1.46570    93    94    92    15
 C     3.83960  -2.29540   0.11970    94    93    11    86
