    94
C94-C2-3                                                                        
 C     4.09110  -2.22410  -0.12570     1     2    63     4
 C     4.87310  -1.04370  -0.17130     2     3    50     1
 C     4.88450  -0.22440  -1.28230     3     6    19     2
 C     3.32490  -2.58910  -1.30050     4     5     9     1
 C     3.34170  -1.67660  -2.35730     5     6     4    29
 C     4.08520  -0.53600  -2.33200     6     3     5    20
 C     0.49700  -4.04600   0.41680     7    10     8    14
 C     1.78160  -3.76990   0.06900     8     7    62     9
 C     2.15150  -3.36760  -1.21900     9     8     4    12
 C    -0.47900  -4.04030  -0.46230    10     7    15    11
 C    -0.20860  -3.62580  -1.72860    11    30    10    12
 C     1.05040  -3.21760  -2.13890    12    11    28     9
 C    -1.03170  -3.24320   2.09690    13    14    70    16
 C     0.23170  -3.64040   1.69020    14    68     7    13
 C    -1.76310  -3.77860  -0.10480    15    10    86    16
 C    -2.14100  -3.39000   1.18450    16    15    91    13
 C     4.23280   2.02080  -1.52730    17    18    37    19
 C     3.42600   1.69380  -2.56840    18    20    17    27
 C     5.00670   1.08790  -0.87250    19    36    17     3
 C     3.37000   0.41960  -2.99220    20    18    21     6
 C     2.20790  -0.09860  -3.46270    21    20    29    25
 C    -1.39080   0.65480  -3.56200    22    23    24    45
 C    -2.58610  -0.04250  -3.34160    23    83    33    22
 C    -0.18340  -0.07590  -3.73330    24    25    22    32
 C     1.02830   0.63700  -3.62720    25    21    24    26
 C     1.06010   1.97890  -3.09830    26    27    46    25
 C     2.25960   2.41120  -2.54970    27    18    38    26
 C     1.04450  -2.15390  -3.08260    28    29    12    32
 C     2.20610  -1.44200  -3.14030    29    28    21     5
 C    -1.39090  -3.13760  -2.18620    30    11    31    86
 C    -1.41440  -2.09700  -3.09140    31    33    30    32
 C    -0.18530  -1.52180  -3.49140    32    31    28    24
 C    -2.58040  -1.38800  -3.06110    33    31    23    88
 C     4.37710   2.03910   1.18520    34    51    35    36
 C     3.59340   2.94580   0.52550    35    37    34    44
 C     5.09670   1.08980   0.48710    36    19    50    34
 C     3.51940   2.94570  -0.81810    37    35    17    38
 C     2.31530   3.20510  -1.42150    38    37    27    42
 C    -1.24070   3.57850  -0.65030    39    40    41    59
 C    -2.45310   3.19550  -1.21800    40    79    47    39
 C    -0.07240   3.40920  -1.42120    41    39    42    46
 C     1.15950   3.58550  -0.75600    42    38    41    43
 C     1.23120   3.57720   0.68560    43    44    60    42
 C     2.44360   3.19040   1.24470    44    35    52    43
 C    -1.35760   1.99190  -3.01020    45    47    46    22
 C    -0.13140   2.58340  -2.64300    46    45    26    41
 C    -2.51420   2.42490  -2.36550    47    84    40    45
 C     4.38630  -0.50950   2.06950    48    50    64    49
 C     3.69830   0.45440   2.76790    49    51    58    48
 C     5.05170  -0.21160   0.92550    50    48    36     2
 C     3.67720   1.71810   2.30580    51    49    34    52
 C     2.49880   2.41410   2.38720    52    51    44    56
 C    -1.06240   1.93950   3.11280    53    54    55    71
 C    -2.26530   2.37230   2.56470    54    75    61    53
 C     0.12200   2.56120   2.66000    55    53    56    60
 C     1.34870   1.96700   3.03210    56    52    55    57
 C     1.39180   0.62860   3.57480    57    58    72    56
 C     2.58280  -0.07150   3.34900    58    49    65    57
 C    -1.17150   3.57420   0.79140    59    61    60    39
 C     0.05980   3.39980   1.44800    60    59    43    55
 C    -2.33180   3.17790   1.44330    61    80    54    59
 C     2.40160  -3.30230   1.19630    62    63     8    68
 C     3.54060  -2.55230   1.14500    63    62    64     1
 C     3.65820  -1.64790   2.19950    64    48    63    65
 C     2.58500  -1.41330   3.06800    65    67    58    64
 C     0.19420  -1.54790   3.47830    66    67    70    72
 C     1.42370  -2.13040   3.08050    67    65    68    66
 C     1.40370  -3.15910   2.16900    68    14    67    62
 C    -2.19540  -1.46890   3.11240    69    70    73    90
 C    -1.03070  -2.18190   3.05040    70    69    13    66
 C    -1.02760   0.59570   3.63620    71    73    72    53
 C     0.18640  -0.10550   3.73870    72    71    57    66
 C    -2.20990  -0.13020   3.45630    73    76    69    71
 C    -4.23410   1.99670   1.54480    74    75    80    77
 C    -3.43370   1.65130   2.58300    75    76    74    54
 C    -3.37800   0.37410   2.98700    76    75    73    89
 C    -4.99860   1.06260   0.88070    77    81    74    92
 C    -4.38330   2.04420  -1.17460    78    84    79    81
 C    -3.60540   2.94850  -0.50470    79    80    78    40
 C    -3.53760   2.93360   0.83640    80    79    74    61
 C    -5.08730   1.07930  -0.47960    81    77    85    78
 C    -4.37800  -0.50500  -2.07090    82    88    85    83
 C    -3.71040   0.47400  -2.76800    83    84    23    82
 C    -3.69630   1.72950  -2.30270    84    83    78    47
 C    -5.04200  -0.22600  -0.91580    85    82    81    93
 C    -2.39520  -3.30550  -1.22270    86    87    15    30
 C    -3.53970  -2.56690  -1.15950    87    86    88    94
 C    -3.65560  -1.64700  -2.20180    88    82    87    33
 C    -4.08750  -0.58140   2.31970    89    92    76    90
 C    -3.33180  -1.72040   2.33510    90    89    91    69
 C    -3.32260  -2.62740   1.27080    91    90    16    94
 C    -4.88580  -0.25960   1.26890    92    89    93    77
 C    -4.88610  -1.08100   0.16540    93    92    85    94
 C    -4.10420  -2.25390   0.10960    94    93    87    91
