    94
C94-C1-125                                                                      
 C     1.54280  -0.52020  -3.92010     1     6     2    56
 C     2.06580  -1.66920  -3.37290     2     1     3    10
 C     3.23360  -1.44760  -2.62560     3     4    55     2
 C     3.54120  -2.20090  -1.54140     4     5     3    14
 C     2.74860  -3.20920  -1.20280     5     4    15    11
 C     0.20720  -0.37570  -4.13280     6     1     8    70
 C    -1.97340  -0.90230  -3.60070     7    24     8    71
 C    -0.70260  -1.38200  -3.82390     8     7     6     9
 C    -0.25630  -2.58320  -3.18720     9     8    10    26
 C     1.16600  -2.70830  -2.99130    10    11     2     9
 C     1.58560  -3.48050  -1.91280    11    28     5    10
 C     4.00170  -1.67600   0.78850    12    14    31    13
 C     3.17690  -2.79570   1.15650    13    15    19    12
 C     4.17700  -1.43970  -0.58410    14    46     4    12
 C     2.59500  -3.53840   0.10370    15     5    16    13
 C     1.37130  -4.13650   0.16810    16    17    15    28
 C     0.68210  -4.08270   1.30640    17    16    21    18
 C     1.16770  -3.39650   2.37650    18    17    19    39
 C     2.39230  -2.74760   2.33310    19    20    18    13
 C     2.43210  -1.62000   3.10080    20    19    30    41
 C    -0.66810  -4.04790   1.27630    21    17    90    23
 C    -2.60170  -3.45150   0.17210    22    23    29    88
 C    -1.37750  -4.04810   0.07140    23    22    21    27
 C    -2.87220  -1.55160  -2.79430    24     7    25    92
 C    -2.51000  -2.70070  -2.10860    25    24    29    26
 C    -1.19430  -3.24850  -2.27430    26    25    27     9
 C    -0.66190  -3.99300  -1.16230    27    28    23    26
 C     0.71770  -4.08140  -1.04850    28    11    16    27
 C    -3.19190  -2.82840  -0.89590    29    22    94    25
 C     3.25120  -0.56740   2.77680    30    33    20    31
 C     4.05660  -0.51680   1.61800    31    30    12    32
 C     4.26970   0.79300   1.05540    32    35    45    31
 C     2.67330   0.53700   3.34390    33    34    30    42
 C     2.88990   1.73610   2.81820    34    33    35    37
 C     3.66880   1.87970   1.71220    35    34    47    32
 C    -0.37640   3.08510   2.84400    36    86    38    52
 C     1.88580   2.66190   2.85570    37    34    50    38
 C     0.64910   2.38860   3.42460    38    36    37    44
 C     0.05470  -2.91130   3.05680    39    90    40    18
 C     0.06170  -1.71590   3.76120    40    41    39    82
 C     1.31170  -1.12260   3.79020    41    42    40    20
 C     1.45760   0.22340   3.91570    42    41    33    44
 C    -0.95330   0.53730   3.94330    43    85    44    82
 C     0.37250   1.10080   3.97450    44    42    38    43
 C     4.39400   0.93950  -0.35050    45    46    49    32
 C     4.34600  -0.19130  -1.13550    46    14    45    55
 C     3.14740   2.97320   1.07480    47    48    50    35
 C     3.20790   3.06200  -0.25220    48    47    49    64
 C     3.84170   2.08420  -0.96000    49    48    53    45
 C     2.04890   3.45040   1.72520    50    47    37    51
 C     0.97440   4.01810   1.04890    51    52    50    63
 C    -0.22310   3.86400   1.68920    52    65    51    36
 C     3.23670   2.06440  -2.19800    53    54    49    57
 C     3.19270   0.92410  -2.94550    54    56    53    55
 C     3.77220  -0.19500  -2.40650    55    54     3    46
 C     2.07440   0.74310  -3.70350    56    54    60     1
 C     2.17630   2.97840  -2.18280    57    64    59    53
 C    -0.22160   3.30660  -2.43370    58    59    62    67
 C     1.02220   2.80350  -2.92900    59    57    60    58
 C     1.03750   1.65610  -3.72440    60    70    56    59
 C    -2.56080   2.71580  -2.11950    61    68    73    62
 C    -1.41120   2.63810  -2.90700    62    61    69    58
 C     0.98830   4.07450  -0.38110    63    64    51    67
 C     2.15800   3.59790  -0.96790    64    57    48    63
 C    -1.40220   3.86270   1.02160    65    52    77    66
 C    -1.46060   3.92830  -0.37570    66    68    65    67
 C    -0.24410   3.96660  -1.12440    67    66    63    58
 C    -2.59060   3.32710  -0.89600    68    61    66    80
 C    -1.32450   1.45490  -3.70730    69    70    71    62
 C    -0.09750   0.98660  -4.05180    70    69    60     6
 C    -2.28450   0.46000  -3.57920    71    74    69     7
 C    -4.12500   1.68160  -0.87070    72    73    80    76
 C    -3.53160   1.73160  -2.09680    73    74    72    61
 C    -3.37630   0.59990  -2.80040    74    73    71    92
 C    -4.40400   0.39330   1.06890    75    91    78    76
 C    -4.57190   0.47830  -0.31710    76    72    75    93
 C    -2.32740   3.16800   1.78760    77    79    65    86
 C    -3.82960   1.40090   1.81510    78    79    75    84
 C    -3.41720   2.57370   1.23520    79    77    80    78
 C    -3.56210   2.69140  -0.12020    80    79    72    68
 C    -2.30480  -1.45090   3.20900    81    83    89    82
 C    -1.11970  -0.91230   3.83400    82    40    81    43
 C    -3.26980  -0.54130   2.77120    83    84    91    81
 C    -3.11640   0.81540   2.86740    84    83    85    78
 C    -1.98450   1.38170   3.42320    85    84    86    43
 C    -1.65350   2.62130   2.87380    86    36    77    85
 C    -3.95710  -1.90390   0.96450    87    91    88    94
 C    -3.05160  -2.83540   1.34340    88    87    89    22
 C    -2.24840  -2.67650   2.47550    89    90    88    81
 C    -1.07190  -3.35270   2.40790    90    89    39    21
 C    -4.09290  -0.78180   1.68600    91    87    75    83
 C    -3.77400  -0.60630  -2.30290    92    74    93    24
 C    -4.38730  -0.71030  -1.06730    93    94    92    76
 C    -4.07950  -1.87780  -0.40190    94    87    93    29
