    94
C94-C1-83                                                                       
 C    -3.65800   1.14410   2.27460     1     9     4     2
 C    -4.41540   0.95550   1.11520     2     3     1     7
 C    -4.60190  -0.37040   0.77060     3    59     2     6
 C    -3.07790   0.11120   2.99060     4     5     1    20
 C    -3.28210  -1.20710   2.65140     5     4     6    27
 C    -4.08500  -1.41370   1.51930     6    65     3     5
 C    -4.24270   1.90620   0.07710     7    11     8     2
 C    -4.19070   1.44100  -1.23360     8    58     7    32
 C    -2.83210   2.21410   2.43760     9    10     1    12
 C    -2.73740   3.14650   1.49240    10     9    18    11
 C    -3.41710   2.98820   0.30090    11     7    30    10
 C    -1.72000   1.88060   3.18260    12    20     9    16
 C     1.94690   2.17760   2.87130    13    14    15    35
 C     2.98740   1.23130   2.81420    14    24    53    13
 C     0.68320   1.75420   3.41930    15    16    13    23
 C    -0.47300   2.51520   3.05380    16    12    15    17
 C    -0.39550   3.56430   2.07660    17    34    18    16
 C    -1.56390   3.79370   1.31430    18    10    29    17
 C    -0.81090  -0.25400   3.83660    19    20    25    23
 C    -1.88300   0.56420   3.54600    20    12    19     4
 C     1.37480  -1.87070   3.35370    21    28    22    83
 C     1.61450  -0.53500   3.63810    22    24    21    23
 C     0.50900   0.34680   3.82400    23    22    19    15
 C     2.81710  -0.08920   3.15980    24    22    14    88
 C    -1.02740  -1.64440   3.56140    25    28    19    27
 C    -2.11910  -3.19230   2.05020    26    91    64    27
 C    -2.24120  -2.10620   2.94300    27     5    26    25
 C     0.11730  -2.38460   3.30550    28    21    94    25
 C    -1.54910   4.08950  -0.02310    29    33    30    18
 C    -2.61070   3.54680  -0.67070    30    29    11    31
 C    -2.46080   3.00610  -1.95380    31    32    30    38
 C    -3.30260   1.94630  -2.18200    32    41    31     8
 C    -0.38650   4.22040  -0.62300    33    29    36    37
 C     0.83680   3.84740   1.46060    34    35    17    36
 C     2.02000   3.21890   1.87740    35    34    52    13
 C     0.76360   4.18880   0.08160    36    33    44    34
 C    -0.19070   3.71670  -1.90010    37    45    38    33
 C    -1.17640   3.02560  -2.58220    38    37    31    39
 C    -0.71110   1.94700  -3.41590    39    40    38    49
 C    -1.66530   0.89990  -3.60370    40    42    41    39
 C    -2.91620   0.91630  -2.99820    41    32    40    57
 C    -1.19510  -0.37030  -3.83050    42    51    40    55
 C     2.85400   3.37240  -0.41220    43    44    46    52
 C     1.71320   3.85460  -0.82280    44    43    36    45
 C     1.14380   3.46320  -2.01620    45    37    44    48
 C     3.54230   2.50240  -1.21400    46    76    43    47
 C     2.97760   1.95510  -2.40030    47    68    46    48
 C     1.69220   2.45150  -2.81140    48    45    49    47
 C     0.73340   1.64940  -3.51740    49    50    48    39
 C     1.16030   0.30840  -3.79810    50    51    69    49
 C     0.13420  -0.64030  -3.93130    51    42    70    50
 C     3.06300   3.11230   0.92590    52    54    43    35
 C     4.01740   1.24550   1.89730    53    54    80    14
 C     4.02520   2.17420   0.92830    54    53    52    76
 C    -1.85790  -1.52900  -3.38310    55    67    56    42
 C    -3.04440  -1.50460  -2.70500    56    55    57    61
 C    -3.58700  -0.23030  -2.57560    57    58    56    41
 C    -4.36940   0.11530  -1.51190    58    59    57     8
 C    -4.59550  -0.79170  -0.54290    59    58    62     3
 C    -2.20910  -3.43220  -1.42590    60    63    66    61
 C    -3.25950  -2.48270  -1.70060    61    62    56    60
 C    -4.06980  -2.05510  -0.62920    62    65    59    61
 C    -2.06780  -3.83460  -0.09310    63    90    64    60
 C    -2.86440  -3.31520   0.91240    64    65    26    63
 C    -3.83560  -2.45120   0.65350    65    64    62     6
 C    -0.99990  -3.46560  -2.16430    66    67    60    74
 C    -0.91000  -2.48760  -3.16690    67    70    55    66
 C     3.35530   0.61570  -2.67920    68    69    47    78
 C     2.43120  -0.20170  -3.37140    69    68    72    50
 C     0.26850  -1.96060  -3.58480    70    71    67    51
 C     1.41330  -2.40360  -3.12040    71    70    72    73
 C     2.48540  -1.58470  -3.05440    72    71    79    69
 C     1.42850  -3.36560  -2.13460    73    84    71    74
 C     0.25830  -3.88550  -1.58840    74    73    89    66
 C     4.70630   0.55220  -0.62490    75    76    78    82
 C     4.35330   1.81500  -0.35790    76    75    46    54
 C     4.14220  -1.37650  -1.45510    77    79    81    78
 C     4.23420  -0.03600  -1.76400    78    75    77    68
 C     3.26970  -2.13510  -2.08500    79    77    72    84
 C     4.41490  -0.02830   1.63360    80    88    53    82
 C     4.39390  -1.60230  -0.12010    81    82    77    86
 C     4.77540  -0.38920   0.37230    82    80    81    75
 C     2.19160  -2.63330   2.49380    83    87    93    21
 C     2.60730  -3.16720  -1.45300    84    73    79    85
 C     2.74080  -3.40840  -0.08410    85    84    92    86
 C     3.66380  -2.55580   0.62260    86    81    87    85
 C     3.34140  -2.14580   1.94790    87    83    88    86
 C     3.68980  -0.87700   2.39290    88    80    87    24
 C     0.36000  -4.21450  -0.21370    89    90    74    92
 C    -0.85400  -4.16900   0.46940    90    91    63    89
 C    -0.93370  -3.79180   1.78800    91    94    26    90
 C     1.57610  -3.93540   0.52790    92    93    85    89
 C     1.38520  -3.54130   1.86060    93    94    83    92
 C     0.16290  -3.43880   2.43010    94    91    93    28
