    94
C94-C1-127                                                                      
 C    -0.76970   4.10990  -0.84800     1     7    50     2
 C    -1.44590   3.49170  -1.89480     2     1    70     3
 C    -0.60600   2.83330  -2.86400     3     4     2     9
 C    -1.18800   1.68980  -3.49160     4     6     5     3
 C    -2.46760   1.27270  -3.16760     5    68     4    18
 C    -0.37770   0.65350  -3.90880     6    12     4    16
 C     0.58760   4.16170  -0.73850     7     1    61     8
 C     1.46470   3.60260  -1.66430     8     7    14     9
 C     0.85050   2.89170  -2.75510     9    11     8     3
 C     2.87760   1.51420  -2.78230    10    13    11    33
 C     1.62180   1.81540  -3.29330    11    12    10     9
 C     0.97240   0.71290  -3.82370    12     6    11    32
 C     3.43630   2.20060  -1.73100    13    10    14    94
 C     2.74430   3.23320  -1.14120    14    13    15     8
 C     2.98640   3.33790   0.23690    15    60    92    14
 C    -0.74610  -0.69180  -3.87210    16    17    21     6
 C    -1.97620  -1.10850  -3.45750    17    16    18    24
 C    -2.85320  -0.06510  -3.17090    18    19     5    17
 C    -3.86400  -0.20160  -2.27670    19    20    18    46
 C    -4.01040  -1.36870  -1.63200    20    19    37    25
 C     0.37950  -1.45170  -3.71460    21    16    32    22
 C     0.38110  -2.67630  -3.03970    22    21    30    23
 C    -0.89460  -3.13140  -2.51480    23    27    24    22
 C    -2.07960  -2.34880  -2.77160    24    25    17    23
 C    -3.14790  -2.42140  -1.86180    25    43    20    24
 C     0.36270  -4.18720  -0.75750    26    31    75    27
 C    -0.88990  -3.92520  -1.31200    27    26    42    23
 C     3.70420  -2.12970  -1.46540    28    81    89    29
 C     2.78320  -2.12890  -2.53580    29    34    28    30
 C     1.63960  -3.00240  -2.44140    30    31    22    29
 C     1.55710  -3.78290  -1.29090    31    26    82    30
 C     1.45890  -0.59190  -3.75340    32    34    21    12
 C     3.38950   0.21640  -2.76410    33    85    34    10
 C     2.66610  -0.89010  -3.19670    34    32    33    29
 C    -4.25110  -0.17580   1.68120    35    47    41    36
 C    -4.67670  -0.16620   0.34810    36    37    35    45
 C    -4.42500  -1.36040  -0.32480    37    20    38    36
 C    -3.84370  -2.46300   0.25520    38    37    40    43
 C    -2.35820  -3.16010   1.90490    39    40    44    62
 C    -3.45600  -2.42770   1.58140    40    39    41    38
 C    -3.62880  -1.25390   2.26330    41    40    35    64
 C    -1.97430  -3.88110  -0.38780    42    43    44    27
 C    -3.08320  -3.14110  -0.69860    43    42    25    38
 C    -1.67950  -3.92230   0.98190    44    76    39    42
 C    -4.53390   1.05900  -0.34790    45    49    46    36
 C    -4.11020   1.00140  -1.67470    46    19    68    45
 C    -3.71740   0.92880   2.28230    47    48    35    53
 C    -3.64940   2.08840   1.63750    48    47    52    49
 C    -4.04930   2.16980   0.31690    49    69    48    45
 C    -1.27770   4.13740   0.43880    50    51    58     1
 C    -2.45220   3.62010   0.72700    51    50    69    52
 C    -2.62810   2.93570   1.90140    52    48    51    55
 C    -2.70350   0.57210   3.15520    53    64    47    54
 C    -1.58200   1.37350   3.43830    54    53    55    67
 C    -1.56410   2.66050   2.79650    55    57    52    54
 C     0.86770   2.71520   2.97540    56    57    59    65
 C    -0.33790   3.29780   2.52860    57    55    56    58
 C    -0.25960   4.06920   1.33530    58    61    50    57
 C     2.03480   3.06660   2.25030    59    91    60    56
 C     2.01610   3.78000   1.08010    60    61    15    59
 C     0.87520   4.22170   0.61270    61    60    58     7
 C    -1.42940  -2.72140   2.85810    62    79    63    39
 C    -1.51250  -1.47880   3.47440    63    64    62    66
 C    -2.66810  -0.79230   3.16820    64    53    63    41
 C     0.85780   1.42330   3.60150    65    73    67    56
 C    -0.31590  -0.77650   3.80680    66    63    71    67
 C    -0.36000   0.69780   3.79980    67    65    54    66
 C    -3.24620   1.93160  -2.24630    68    70     5    46
 C    -3.24050   3.12210  -0.26990    69    51    49    70
 C    -2.75900   3.02980  -1.58080    70    68    69     2
 C     0.93560  -1.47390   3.56710    71    72    78    66
 C     2.07080  -0.69530   3.43070    72    73    71    83
 C     2.03930   0.67970   3.46790    73    72    90    65
 C     1.82070  -3.86630   0.93580    74    75    82    77
 C     0.57140  -4.26860   0.60970    75    76    74    26
 C    -0.42670  -4.06060   1.44920    76    75    44    79
 C     2.11520  -3.11190   2.09540    77    84    74    78
 C     0.99250  -2.75440   2.91830    78    79    71    77
 C    -0.23010  -3.30810   2.58270    79    62    76    78
 C     3.93480  -2.18210   0.77820    80    81    88    84
 C     3.50150  -2.86560  -0.33460    81    82    28    80
 C     2.46340  -3.67750  -0.25460    82    81    74    31
 C     3.19200  -1.08260   2.69200    83    84    86    72
 C     3.22350  -2.25800   1.98450    84    83    80    77
 C     4.25320   0.14330  -1.70680    85    89    94    33
 C     3.84550   0.05990   2.26120    86    90    83    87
 C     4.52780   0.15380   1.04220    87    88    86    93
 C     4.53220  -1.02440   0.31730    88    89    80    87
 C     4.40010  -1.02100  -1.05120    89    85    28    88
 C     3.15130   1.11020   2.78110    90    91    86    73
 C     3.13870   2.28360   2.15190    91    90    59    92
 C     3.76290   2.42840   0.93250    92    91    93    15
 C     4.43960   1.38390   0.33950    93    92    94    87
 C     4.28170   1.33630  -1.04160    94    85    93    13
