    94
C94-C1-112                                                                      
 C    -1.38440   1.11970   3.69620     1     7     2    60
 C    -1.83800  -0.19050   3.66010     2     1    58     3
 C    -0.80020  -1.20560   3.74820     3     4     2     9
 C    -1.10080  -2.43730   3.09280     4     5     6     3
 C    -2.30090  -2.62460   2.44950     5     4    59    18
 C    -0.07150  -3.18860   2.56180     6    12     4    16
 C    -0.05870   1.45460   3.83970     7     1    65     8
 C     0.98060   0.53940   3.96000     8     7    14     9
 C     0.61090  -0.84330   3.90300     9    11     8     3
 C     2.87010  -1.24330   3.00450    10    13    27    11
 C     1.62260  -1.72840   3.41010    11    12    10     9
 C     1.23470  -2.86810   2.72810    12     6    11    29
 C     3.17590   0.09010   3.05190    13    10    14    94
 C     2.25740   1.00400   3.50830    14    13    15     8
 C     2.34390   2.25200   2.87500    15    64    91    14
 C    -0.18070  -3.89670   1.36120    16    21    17     6
 C    -1.32580  -3.94100   0.63260    17    16    18    25
 C    -2.42240  -3.38500   1.27650    18    19    17     5
 C    -3.48170  -2.91300   0.59790    19    18    20    33
 C    -3.43100  -2.88220  -0.75570    20    19    34    26
 C     1.04530  -3.95420   0.79260    21    16    29    23
 C     2.42420  -3.38910  -0.97440    22    43    23    30
 C     1.20680  -3.92470  -0.59510    23    22    21    24
 C     0.05440  -3.79200  -1.43130    24    23    25    45
 C    -1.22580  -3.88600  -0.79760    25    26    24    17
 C    -2.31860  -3.30470  -1.43090    26    20    47    25
 C     3.61720  -1.81090   1.97430    27    28    87    10
 C     3.13890  -2.88860   1.26900    28    29    27    30
 C     1.95680  -3.40830   1.67430    29    28    21    12
 C     3.38780  -2.91300  -0.08360    30    90    28    22
 C    -4.62510  -0.87970   0.64370    31    33    50    32
 C    -4.61420  -0.85570  -0.73120    32    34    36    31
 C    -4.03670  -1.89090   1.30780    33    31    19    59
 C    -3.98720  -1.83520  -1.41900    34    32    20    35
 C    -3.21940  -1.56340  -2.51600    35    34    47    38
 C    -4.48910   0.43120  -1.14620    36    32    51    37
 C    -3.74650   0.79310  -2.28860    37    36    54    38
 C    -3.07930  -0.26460  -3.01690    38    35    41    37
 C     0.43930  -0.60580  -4.05900    39    48    79    40
 C    -0.86000  -1.04980  -3.84430    40    39    46    41
 C    -1.87940  -0.02480  -3.71610    41    42    38    40
 C    -1.42130   1.30400  -3.69580    42    80    53    41
 C     2.56320  -2.69350  -2.13860    43    22    44    83
 C     1.47060  -2.47680  -2.97210    44    48    43    45
 C     0.18240  -3.01110  -2.66360    45    44    46    24
 C    -0.98140  -2.30870  -3.17540    46    47    40    45
 C    -2.19390  -2.51230  -2.55840    47    46    26    35
 C     1.55990  -1.28630  -3.67470    48    39    44    86
 C    -3.85980   2.35690   0.03400    49    51    55    52
 C    -4.49940   0.38020   1.13470    50    31    51    57
 C    -4.49990   1.18930   0.01360    51    49    50    36
 C    -3.20300   2.82360  -1.06660    52    49    54    68
 C    -1.98680   2.29410  -2.93770    53    54    42    66
 C    -3.13070   2.06950  -2.23220    54    53    52    37
 C    -3.22530   2.77610   1.16060    55    49    61    56
 C    -3.15930   1.96370   2.29940    56    60    55    57
 C    -3.75730   0.68980   2.29970    57    56    50    58
 C    -3.08660  -0.39740   2.98030    58    59     2    57
 C    -3.28590  -1.66240   2.43290    59    33     5    58
 C    -2.01540   2.15700   3.01750    60    56    63     1
 C    -2.19110   3.60720   0.74730    61    62    68    55
 C    -1.05670   3.80400   1.47830    62    61    63    70
 C    -1.04390   3.07920   2.67430    63    65    60    62
 C     1.26720   3.04340   2.71360    64    65    15    71
 C     0.10600   2.68140   3.24060    65    64    63     7
 C    -0.96030   3.15750  -2.52120    66    72    67    53
 C    -0.96960   3.81950  -1.31160    67    66    68    69
 C    -2.15860   3.63110  -0.62230    68    61    67    52
 C     0.26300   4.04220  -0.62590    69    67    70    74
 C     0.17950   4.07070   0.81320    70    71    62    69
 C     1.32420   3.71660   1.51470    71    77    64    70
 C     0.20460   2.74290  -3.08790    72    66    80    73
 C     1.46810   2.95960  -2.53240    73    72    82    74
 C     1.52100   3.62940  -1.25560    74    76    73    69
 C     3.61570   2.39580  -0.85050    75    81    92    76
 C     2.65100   3.31940  -0.43050    76    77    75    74
 C     2.51210   3.36830   0.94590    77    71    76    91
 C     2.06860   0.89150  -3.66620    78    79    86    82
 C     0.79400   0.71610  -4.07730    79    80    78    39
 C    -0.11390   1.63860  -3.84320    80    79    42    72
 C     3.50780   1.75030  -2.05510    81    75    82    84
 C     2.46100   2.00240  -2.90530    82    81    78    73
 C     3.61960  -1.79880  -1.97040    83    85    90    43
 C     4.10450   0.49690  -1.92290    84    88    85    81
 C     3.62310  -0.59320  -2.62910    85    86    83    84
 C     2.59620  -0.36920  -3.48840    86    85    78    48
 C     4.35170  -0.80920   1.36810    87    94    27    89
 C     4.59490   0.38200  -0.64180    88    84    92    89
 C     4.62610  -0.84770   0.00610    89    90    87    88
 C     4.12350  -1.92780  -0.69700    90    30    83    89
 C     3.19120   2.50520   1.81230    91    93    15    77
 C     4.31820   1.56070   0.02110    92    93    88    75
 C     4.08600   1.57570   1.37570    93    91    92    94
 C     4.09150   0.36540   2.03600    94    87    93    13
