    94
C94-C1-128                                                                      
 C     4.20930   0.14570  -1.57850     1     2     5    53
 C     3.37650   0.08460  -2.69070     2    34     1    12
 C     4.41790   0.44060   1.17130     3     4    56     6
 C     4.31540   1.52530   0.40220     4     3    15     5
 C     4.22000   1.39770  -0.96500     5     4    10     1
 C     3.76310   0.39030   2.37790     6     3    58     7
 C     2.96200   1.44620   2.81450     7     8     6    14
 C     1.88320   1.05020   3.56130     8     7    30    57
 C     3.13550   3.19320  -0.29770     9    13    15    10
 C     3.46710   2.46130  -1.41370    10     9     5    11
 C     2.60750   2.38090  -2.50780    11    12    10    19
 C     2.59170   1.15410  -3.12480    12    11    20     2
 C     2.01160   3.89350  -0.28040    13     9    18    16
 C     2.83680   2.61400   2.03430    14     7    15    17
 C     3.58280   2.60090   0.83750    15     9     4    14
 C     1.25880   4.00480   0.87340    16    33    13    17
 C     1.59080   3.33900   2.05210    17    16    31    14
 C     1.20760   3.92560  -1.38310    18    22    13    19
 C     1.42020   3.13060  -2.53130    19    11    18    25
 C     1.45060   0.64870  -3.72770    20    21    12    26
 C     1.55020  -0.71770  -3.70250    21    20    28    34
 C    -0.01890   4.22300  -0.89830    22    23    18    33
 C    -1.08880   3.86320  -1.58880    23    22    94    24
 C    -0.97050   3.08130  -2.71310    24    45    23    25
 C     0.25070   2.62510  -3.19140    25    24    26    19
 C     0.23090   1.32020  -3.78350    26    20    25    27
 C    -0.98000   0.51880  -3.84360    27    46    26    47
 C     0.42560  -1.52030  -3.73120    28    21    29    47
 C     0.61640  -2.73640  -3.09170    29    43    28    35
 C     0.70530   1.77040   3.59370    30    75     8    31
 C     0.46810   2.92640   2.83930    31    30    17    90
 C    -1.15720   3.87890   1.22340    32    33    93    90
 C    -0.03270   4.23880   0.48640    33    16    22    32
 C     2.74240  -1.06600  -3.06040    34     2    36    21
 C     1.79200  -3.06160  -2.42460    35    37    36    29
 C     2.90290  -2.23710  -2.35290    36    34    35    52
 C     1.42960  -3.87280  -1.39140    37    38    39    35
 C     2.11300  -3.84730  -0.24990    38    37    51    67
 C     0.09280  -4.05990  -1.38640    39    37    43    40
 C    -0.61860  -4.22160  -0.19490    40    41    39    66
 C    -1.92790  -3.84940  -0.29640    41    40    68    44
 C    -1.69790  -2.94130  -2.55560    42    43    44    50
 C    -0.42050  -3.39710  -2.49230    43    42    29    39
 C    -2.47830  -3.28680  -1.45020    44    82    42    41
 C    -2.13630   2.37700  -2.80030    45    24    46    85
 C    -2.18880   1.10860  -3.36140    46    48    45    27
 C    -0.87530  -0.94060  -3.80090    47    28    50    27
 C    -3.21020   0.31350  -2.86440    48    49    46    88
 C    -3.10330  -1.04470  -2.80980    49    48    81    50
 C    -1.96350  -1.71620  -3.24540    50    49    42    47
 C     3.23120  -3.06940  -0.14620    51    54    38    52
 C     3.70260  -2.22330  -1.18010    52    51    36    53
 C     4.35890  -1.02350  -0.78140    53    56     1    52
 C     3.30500  -2.75560   1.17930    54    55    51    60
 C     3.92740  -1.63960   1.54750    55    54    58    56
 C     4.47340  -0.80720   0.60800    56    55     3    53
 C     1.58940  -0.29230   3.80740    57    65    59     8
 C     3.45350  -0.93610   2.61590    58    55     6    59
 C     2.31670  -1.34680   3.30530    59    57    58    62
 C     2.18340  -3.21530   1.84790    60    67    54    62
 C     0.19210  -2.65180   3.09520    61    64    62    70
 C     1.61300  -2.53000   2.92140    62    60    59    61
 C    -1.79700  -1.31700   3.51480    63    71    64    73
 C    -0.45960  -1.54910   3.72880    64    63    65    61
 C     0.25480  -0.39040   4.02130    65    57    64    75
 C     0.06000  -4.07900   1.05380    66    67    40    70
 C     1.43810  -3.93100   0.95630    67    60    38    66
 C    -2.63040  -3.37910   0.78360    68    41    77    69
 C    -1.99300  -3.16030   2.00730    69    71    68    70
 C    -0.60670  -3.46520   2.17280    70    69    66    61
 C    -2.56740  -2.10680   2.70000    71    63    69    79
 C    -3.45910  -0.09000   2.75260    72    76    73    79
 C    -2.35070  -0.03770   3.52350    73    72    74    63
 C    -1.59980   1.12490   3.65190    74    75    73    89
 C    -0.29170   0.89210   3.94480    75    74    30    65
 C    -3.85840   0.99960   2.07490    76    72    83    91
 C    -3.67440  -2.59370   0.29180    77    82    78    68
 C    -4.21190  -1.52630   0.99010    78    79    77    84
 C    -3.62740  -1.34140   2.22740    79    72    78    71
 C    -4.45100  -0.40000  -1.12230    80    81    88    84
 C    -3.89720  -1.47110  -1.76210    81    82    80    49
 C    -3.55030  -2.56240  -1.07050    82    81    44    77
 C    -4.45410   0.86560   0.85110    83    76    86    84
 C    -4.64000  -0.38290   0.26400    84    83    80    78
 C    -2.96610   2.76350  -1.73970    85    87    94    45
 C    -4.10430   1.99450   0.14010    86    83    87    92
 C    -3.91760   1.93830  -1.22730    87    85    88    86
 C    -4.06750   0.72070  -1.83250    88    87    80    48
 C    -1.94220   2.28860   2.91530    89    91    74    90
 C    -0.91230   3.18510   2.46260    90    89    32    31
 C    -3.11180   2.16050   2.14420    91    92    76    89
 C    -3.29670   2.80250   0.94900    92    91    93    86
 C    -2.33670   3.64560   0.45420    93    92    94    32
 C    -2.25040   3.63300  -0.94400    94    23    85    93
