    94
C94-Cs-39                                                                       
 C    -4.39120   1.48360   1.10000     1     5    17    46
 C    -1.04310   2.31990   3.17140     2     3    53     6
 C    -2.28810   2.32800   2.64930     3     2     4    51
 C    -3.00810   1.17570   2.95120     4     5     3     8
 C    -4.04570   0.77170   2.19480     5     4     1    18
 C    -0.46570   1.22200   3.82520     6    14     7     2
 C    -1.09560   0.00430   3.90310     7     8     6     9
 C    -2.40380   0.03400   3.49480     8     7    19     4
 C    -0.31290  -1.17500   3.79650     9     7    10    12
 C    -0.98820  -2.28850   3.15160    10    11    22     9
 C    -0.16820  -3.18080   2.49500    11    10    94    31
 C     1.14380  -1.04480   3.74620    12    93    13     9
 C     1.75730   0.26530   3.75880    13    14    90    12
 C     0.87490   1.34320   3.76360    14     6    68    13
 C    -4.89840  -0.55050  -0.00470    15    26    16    17
 C    -4.47680  -1.24230   1.09340    16    18    15    20
 C    -4.85260   0.82950  -0.00120    17    25     1    15
 C    -4.07480  -0.59500   2.20270    18    16    19     5
 C    -3.03790  -1.05960   2.95470    19    18     8    22
 C    -3.77370  -2.35730   0.68960    20    16    27    21
 C    -2.73230  -2.90370   1.44870    21    20    32    22
 C    -2.33240  -2.22450   2.66960    22    19    10    21
 C    -4.05100   0.79580  -2.18540    23    37    25    24
 C    -4.07910  -0.57710  -2.18940    24    26    28    23
 C    -4.38860   1.50070  -1.08310    25    23    17    45
 C    -4.47580  -1.24840  -1.09130    26    24    15    27
 C    -3.77820  -2.36340  -0.70670    27    26    30    20
 C    -3.02970  -1.02770  -2.94290    28    24    38    29
 C    -2.32760  -2.20220  -2.66430    29    28    40    30
 C    -2.73130  -2.90200  -1.45390    30    27    33    29
 C    -0.55880  -3.83490   1.33410    31    85    11    32
 C    -1.78870  -3.64470   0.71610    32    31    21    33
 C    -1.78390  -3.64310  -0.73540    33    34    30    32
 C    -0.55660  -3.82350  -1.35480    34    86    33    39
 C    -1.04490   2.34370  -3.15680    35    36    47    43
 C    -2.29070   2.34530  -2.63260    36    35    37    44
 C    -3.01310   1.19440  -2.94320    37    23    36    38
 C    -2.40370   0.06250  -3.49610    38    42    28    37
 C    -0.15910  -3.15840  -2.50560    39    62    40    34
 C    -0.98170  -2.26030  -3.15220    40    39    29    41
 C    -0.31470  -1.14170  -3.79450    41    42    40    64
 C    -1.09780   0.03770  -3.90220    42    38    43    41
 C    -0.46710   1.25330  -3.82280    43    66    42    35
 C    -2.51930   3.04950  -1.40710    44    45    36    49
 C    -3.59980   2.56300  -0.67310    45    46    25    44
 C    -3.60210   2.55960   0.70280    46    45    51     1
 C    -0.04460   3.08550  -2.61250    47    35    54    48
 C    -0.14950   3.76490  -1.37810    48    47    55    49
 C    -1.41750   3.68320  -0.71220    49    48    44    50
 C    -1.41410   3.67930   0.74610    50    52    51    49
 C    -2.51860   3.04140   1.43150    51    46     3    50
 C    -0.14560   3.75330   1.41270    52    53    56    50
 C    -0.03830   3.06270   2.63980    53     2    68    52
 C     1.11590   2.53570  -3.08870    54    57    47    66
 C     1.08660   3.91930  -0.68630    55    56    58    48
 C     1.09260   3.91600   0.72530    56    55    70    52
 C     2.25380   2.72960  -2.45900    57    54    58    59
 C     2.27680   3.43820  -1.29920    58    57    71    55
 C     3.23370   1.77540  -2.49210    59    57    79    61
 C     3.67550  -0.49180  -2.50260    60    67    61    77
 C     3.00360   0.54100  -3.11750    61    60    59    65
 C     1.21670  -3.07350  -2.49000    62    39    63    81
 C     1.89570  -2.03290  -3.09700    63    62    67    64
 C     1.14240  -1.01440  -3.73910    64    63    65    41
 C     1.75080   0.29330  -3.74850    65    66    61    64
 C     0.87240   1.36750  -3.76190    66    43    54    65
 C     3.13070  -1.75550  -2.49950    67    60    83    63
 C     1.12520   2.52450   3.11300    68    69    53    14
 C     2.26510   2.72030   2.49280    69    68    70    89
 C     2.28300   3.43200   1.33310    70    69    72    56
 C     3.38690   2.97400  -0.64720    71    72    58    79
 C     3.38920   2.96330   0.68150    72    71    70    74
 C     4.60220   0.87760   0.71650    73    74    75    78
 C     3.97810   1.92870   1.37650    74    72    89    73
 C     4.45210  -0.34190   1.37860    75    80    73    91
 C     4.38280  -1.51250  -0.67220    76    80    77    83
 C     4.46220  -0.33140  -1.35770    77    76    78    60
 C     4.60520   0.88870  -0.70430    78    79    77    73
 C     3.98490   1.94470  -1.34610    79    71    59    78
 C     4.37590  -1.52050   0.68780    80    76    87    75
 C     1.68740  -3.70860  -1.35120    81    86    82    62
 C     2.85600  -3.36520  -0.70430    82    83    81    88
 C     3.59630  -2.40260  -1.35720    83    76    82    67
 C     1.67900  -3.71260   1.34850    84    85    88    94
 C     0.58260  -4.12800   0.66080    85    86    31    84
 C     0.58390  -4.12320  -0.67700    86    85    81    34
 C     3.59600  -2.40990   1.37450    87    80    88    92
 C     2.85670  -3.36560   0.71200    88    87    84    82
 C     3.24010   1.76090   2.53150    89    69    74    90
 C     3.01680   0.52030   3.13950    90    91    89    13
 C     3.67940  -0.51670   2.53200    91    90    92    75
 C     3.13830  -1.77970   2.52900    92    91    87    93
 C     1.89870  -2.06610   3.10860    93    94    92    12
 C     1.21050  -3.09460   2.49790    94    93    11    84
