    94
C94-C1-16                                                                       
 C    -1.98140  -3.32370  -1.57490     1    10     2     4
 C    -2.85360  -2.42130  -2.09030     2     1     3     7
 C    -3.90570  -2.08830  -1.24230     3    57     2     6
 C    -2.01270  -3.72230  -0.22680     4    25     5     1
 C    -2.90300  -3.20770   0.66880     5     4     6    23
 C    -3.93060  -2.46330   0.10740     6    62     5     3
 C    -2.30670  -1.48770  -3.03260     7     8     2    12
 C    -2.96700  -0.25890  -3.00990     8    59     9     7
 C    -2.28730   0.91890  -3.23970     9    14     8    43
 C    -0.71110  -3.45860  -2.02590    10     1    17    11
 C    -0.11010  -2.61190  -2.98120    11    10    18    12
 C    -0.92350  -1.52330  -3.44320    12    11     7    13
 C    -0.24370  -0.28470  -3.79170    13    15    12    14
 C    -0.96480   0.96950  -3.61820    14     9    27    13
 C     1.18990  -0.25490  -3.73850    15    16    19    13
 C     1.78760   0.99780  -3.52100    16    26    37    15
 C    -0.01420  -4.06450  -1.01690    17    20    10    25
 C     1.30870  -2.54290  -2.92340    18    19    21    11
 C     1.97740  -1.37090  -3.32870    19    18    41    15
 C     1.29490  -3.99510  -0.97210    20    17    21    94
 C     1.97580  -3.30770  -1.92790    21    20    85    18
 C    -2.98630  -1.77430   2.54120    22    63    74    23
 C    -2.37460  -2.88810   1.96150    23    22    90     5
 C    -0.20460  -3.91840   1.39300    24    25    93    90
 C    -0.76970  -4.11180   0.12480    25     4    17    24
 C     1.07150   2.14030  -3.28450    26    16    29    27
 C    -0.30850   2.18610  -3.28650    27    26    14    28
 C    -0.92570   3.15790  -2.41240    28    31    42    27
 C     1.86090   2.94940  -2.50230    29    30    32    26
 C     1.29230   3.77880  -1.64430    30    29    33    31
 C    -0.07180   3.88540  -1.59160    31    30    49    28
 C     3.03790   2.34230  -2.19750    32    29    37    35
 C     1.86110   3.96910  -0.42130    33    30    48    34
 C     3.03820   3.31590  -0.00530    34    33    56    35
 C     3.70000   2.47270  -0.95590    35    32    39    34
 C     3.72080   0.13570  -2.49580    36    37    41    38
 C     3.01390   1.17440  -2.90490    37    36    32    16
 C     4.45720   0.18910  -1.33230    38    36    81    39
 C     4.42780   1.33380  -0.52230    39    40    38    35
 C     4.44940   1.04450   0.83640    40    55    39    83
 C     3.24380  -1.11890  -2.72810    41    36    86    19
 C    -2.22740   2.97700  -1.92970    42    43    28    45
 C    -2.92500   1.90300  -2.47270    43    44    42     9
 C    -4.00270   1.33550  -1.86960    44    47    43    59
 C    -2.59910   3.36520  -0.57990    45    46    50    42
 C    -3.64780   2.67440   0.01270    46    47    45    66
 C    -4.40420   1.72870  -0.63310    47    44    60    46
 C     0.79210   4.24670   0.38100    48    51    33    49
 C    -0.39910   4.21610  -0.29570    49    48    31    50
 C    -1.61170   3.88290   0.28430    50    49    45    53
 C     0.83280   3.85570   1.65550    51    48    54    52
 C    -0.31900   3.44260   2.26520    52    51    69    53
 C    -1.57400   3.47430   1.67070    53    52    65    50
 C     1.92930   3.21940   2.13540    54    51    79    56
 C     3.75560   1.82900   1.73950    55    56    40    77
 C     3.06560   2.95450   1.36540    56    55    54    34
 C    -4.54230  -0.88780  -1.33870    57    59     3    58
 C    -4.96690  -0.50500  -0.09300    58    62    60    57
 C    -4.05440   0.01690  -2.21440    59    57    44     8
 C    -4.87810   0.81680   0.25830    60    47    61    58
 C    -4.37260   1.16770   1.47440    61    64    60    66
 C    -4.56340  -1.46660   0.78500    62    63     6    58
 C    -4.05310  -1.10730   1.99070    63    62    64    22
 C    -3.95650   0.20820   2.33510    64    61    67    63
 C    -2.53140   2.58760   2.18400    65    66    53    68
 C    -3.62100   2.31090   1.36320    66    61    65    46
 C    -2.84730   0.38190   3.10580    67    64    74    68
 C    -2.11400   1.56390   3.13100    68    67    70    65
 C     0.06900   2.47430   3.17860    69    79    52    70
 C    -0.77460   1.44510   3.57170    70    69    68    72
 C     1.27320   0.08220   3.78870    71    75    78    72
 C    -0.15460   0.16470   3.86040    72    71    73    70
 C    -0.93030  -1.03420   3.62890    73    74    89    72
 C    -2.25550  -0.86100   3.29600    74    73    67    22
 C     1.81460  -1.16650   3.48550    75    91    80    71
 C     3.75640  -0.24970   2.47540    76    80    77    83
 C     3.28830   0.99330   2.75290    77    76    55    78
 C     2.07660   1.19320   3.42040    78    79    77    71
 C     1.44160   2.35480   3.10550    79    78    69    54
 C     3.03390  -1.32020   2.85880    80    76    87    75
 C     4.50730  -1.10500  -0.85160    81    86    38    82
 C     4.50170  -1.40480   0.50790    82    81    83    88
 C     4.48010  -0.26680   1.30990    83    76    82    40
 C     3.14430  -3.33140  -0.00750    84    94    85    88
 C     3.16310  -2.97340  -1.34100    85    86    21    84
 C     3.80830  -1.88950  -1.74570    86    85    41    81
 C     3.05020  -2.46490   2.12680    87    80    92    88
 C     3.77900  -2.54570   0.94210    88    84    87    82
 C    -0.32480  -2.26420   3.20590    89    91    73    90
 C    -1.02000  -3.17240   2.31560    90    23    24    89
 C     1.05780  -2.27510   3.17540    91    75    89    92
 C     1.81750  -3.07330   2.33790    92    93    91    87
 C     1.20830  -3.87000   1.40490    93    92    94    24
 C     1.94610  -3.96810   0.22430    94    20    84    93
