    94
C94-C1-56                                                                       
 C     0.86630   2.57190  -3.05960     1     2     9     4
 C    -0.02960   3.41920  -2.46140     2     1     3     7
 C     0.52910   4.13760  -1.40310     3    56     6     2
 C     2.19820   2.45510  -2.66020     4    21     5     1
 C     2.73440   3.12950  -1.57240     5     6     4    25
 C     1.82610   3.97820  -0.96170     6    62     3     5
 C    -1.40100   3.05830  -2.46440     7     8     2    11
 C    -2.14110   3.53030  -1.37020     8    28    55     7
 C     0.46040   1.38650  -3.62260     9     1    14    10
 C    -0.85630   0.94820  -3.64440    10     9    18    11
 C    -1.85850   1.82990  -3.06950    11    12     7    10
 C    -3.08380   1.25680  -2.59640    12    13    11    27
 C    -3.24340  -0.11980  -2.76990    13    29    19    12
 C     1.54830   0.54510  -3.60610    14     9    16    21
 C     2.47310  -1.47660  -3.01130    15    39    16    22
 C     1.40250  -0.82930  -3.59640    16    15    14    17
 C     0.10350  -1.39770  -3.60400    17    16    18    41
 C    -1.01860  -0.48230  -3.68380    18    19    10    17
 C    -2.24010  -0.95020  -3.25950    19    18    43    13
 C     3.64870   0.56580  -2.35670    20    21    22    23
 C     2.62710   1.21020  -3.01880    21     4    20    14
 C     3.55290  -0.81860  -2.42020    22    87    20    15
 C     4.21220   1.19120  -1.20890    23    26    20    25
 C     3.62090   2.68490   0.59370    24    90    61    25
 C     3.72340   2.46440  -0.80010    25    24     5    23
 C     4.61790   0.29010  -0.19960    26    86    94    23
 C    -3.79620   1.80830  -1.47820    27    28    31    12
 C    -3.24640   2.90740  -0.87430    28     8    27    47
 C    -4.03790  -0.89010  -1.95830    29    30    32    13
 C    -4.63170  -0.35990  -0.86400    30    31    29    33
 C    -4.49740   0.96020  -0.61460    31    30    45    27
 C    -3.52330  -2.14590  -1.91290    32    35    29    43
 C    -4.62290  -1.05790   0.31460    33    34    51    30
 C    -4.07350  -2.27960   0.36480    34    33    35    63
 C    -3.56970  -2.86120  -0.76110    35    36    32    34
 C    -2.55260  -3.67100  -0.43390    36    35    38    80
 C    -0.33970  -4.28510  -0.66030    37    38    44    78
 C    -1.47400  -3.87700  -1.29420    38    37    36    42
 C     2.31080  -2.68030  -2.37500    39    15    40    82
 C     1.07600  -3.29810  -2.33060    40    39    44    41
 C    -0.06320  -2.70670  -2.96640    41    42    40    17
 C    -1.35290  -3.07590  -2.47720    42    43    41    38
 C    -2.41070  -2.21020  -2.71100    43    32    19    42
 C     0.90490  -4.06820  -1.18230    44    37    84    40
 C    -4.43880   1.09120   0.77380    45    46    51    31
 C    -3.76710   2.12950   1.33870    46    45    47    48
 C    -3.24710   3.08780   0.51240    47    54    46    28
 C    -3.01430   1.84110   2.45880    48    52    46    50
 C    -3.59380  -0.50890   2.41630    49    50    51    64
 C    -2.90270   0.55560   2.95250    50    67    49    48
 C    -4.42300  -0.17990   1.33000    51    33    45    49
 C    -1.85690   2.52640   2.76470    52    48    53    68
 C    -1.39020   3.58050   2.00590    53    52    54    58
 C    -2.13920   3.81540   0.84330    54    55    47    53
 C    -1.52720   4.17520  -0.31640    55    56    54     8
 C    -0.23410   4.45360  -0.31590    56    55     3    59
 C     0.86640   2.96740   2.76750    57    60    65    58
 C    -0.00750   3.82000   2.00850    58    53    59    57
 C     0.52640   4.35740   0.81970    59    62    56    58
 C     2.18100   2.86010   2.31910    60    76    61    57
 C     2.64130   3.45230   1.15370    61    62    24    60
 C     1.79550   4.14130   0.40330    62    61    59     6
 C    -3.28640  -2.65450   1.43270    63    80    34    64
 C    -2.96030  -1.77980   2.49100    64    63    49    70
 C     0.36100   1.82110   3.46740    65    68    57    74
 C    -0.99230  -0.76630   3.65210    66    67    73    70
 C    -1.66190   0.44120   3.53850    67    50    66    68
 C    -1.01560   1.66370   3.44320    68    52    65    67
 C    -0.83550  -3.02220   2.67310    69    71    79    70
 C    -1.66300  -1.93860   3.10830    70    69    64    66
 C     0.53600  -2.90590   2.88130    71    81    72    69
 C     1.14560  -1.78100   3.40760    72    71    91    73
 C     0.43400  -0.64300   3.76390    73    72    66    74
 C     1.14270   0.62540   3.66730    74    75    65    73
 C     2.50770   0.61090   3.20360    75    76    92    74
 C     2.95840   1.75640   2.53520    76    60    90    75
 C     1.09330  -4.19150   0.99970    77    81    78    84
 C    -0.22080  -4.32200   0.72770    78    77    79    37
 C    -1.21780  -3.83460   1.56430    79    80    78    69
 C    -2.40300  -3.59520   0.95770    80    79    63    36
 C     1.48460  -3.52500   2.09910    81    77    88    71
 C     3.27700  -2.75930  -1.37420    82    87    83    39
 C     3.03350  -3.41490  -0.17740    83    84    82    89
 C     1.83280  -4.08610  -0.14940    84    77    83    44
 C     4.23450  -1.63760   0.90830    85    89    93    86
 C     4.53590  -1.07430  -0.31820    86    87    26    85
 C     4.02710  -1.62750  -1.43220    87    86    82    22
 C     2.65330  -2.84360   2.11420    88    81    91    89
 C     3.49830  -2.80150   1.01270    89    85    88    83
 C     3.89080   1.70840   1.50770    90    94    24    76
 C     2.45790  -1.75920   2.95970    91    92    72    88
 C     3.16170  -0.59220   2.83610    92    91    93    75
 C     4.11030  -0.59030   1.80240    93    94    85    92
 C     4.41780   0.55020   1.13370    94    90    93    26
