    94
C94-C2-86                                                                       
 C    -4.30780   2.00820  -0.24150     1     3     7     2
 C    -4.47160   1.35800   0.95930     2     4    13     1
 C    -4.31590   1.31890  -1.40330     3     1    58    20
 C    -4.70280   0.03720   0.97540     4     2     5    59
 C    -4.10840  -0.74010   1.92440     5     4    65    11
 C    -1.91360   3.44840   1.64850     6     8    16    14
 C    -3.41850   3.01320  -0.08570     7     1     8    18
 C    -3.08340   2.98740   1.25610     8     6    13     7
 C    -2.17540  -2.39040   2.76230     9    91    64    10
 C    -2.17910  -1.09440   3.34570    10    11     9    36
 C    -3.19720  -0.22200   2.89630    11    10    12     5
 C    -2.93100   1.17390   2.87020    12    13    11    15
 C    -3.63890   1.91370   1.88780    13     8     2    12
 C    -1.19920   2.83910   2.65390    14    32     6    15
 C    -1.63210   1.65590   3.27050    15    14    35    12
 C    -1.07120   4.03860   0.77010    16     6    22    17
 C    -1.33980   4.01840  -0.60580    17    21    18    16
 C    -2.50590   3.41570  -1.08040    18    17     7    19
 C    -2.44770   2.61640  -2.28320    19    20    38    18
 C    -3.37800   1.58720  -2.37000    20     3    41    19
 C    -0.20620   3.94240  -1.35420    21    17    27    37
 C     0.18880   3.95700   1.31260    22    26    16    32
 C     3.37250   1.61140   2.33480    23    53    33    24
 C     2.43090   2.63600   2.24250    24    23    31    25
 C     2.48850   3.43030   1.03580    25    26    52    24
 C     1.31850   4.02320   0.55680    26    22    25    27
 C     1.05620   4.02370  -0.81760    27    44    21    26
 C     1.47570  -1.11670   3.56940    28    34    29    83
 C     1.84550   0.21000   3.56390    29    28    33    30
 C     0.82820   1.20790   3.59710    30    29    31    35
 C     1.18080   2.44420   2.92520    31    32    24    30
 C     0.11680   3.18800   2.46820    32    14    31    22
 C     3.07430   0.42050   2.96210    33    23    29    88
 C     0.16890  -1.48340   3.67490    34    28    94    36
 C    -0.58280   0.80070   3.73350    35    15    36    30
 C    -0.90980  -0.59450   3.78330    36    34    10    35
 C    -0.12710   3.16340  -2.50390    37    45    38    21
 C    -1.19500   2.41980  -2.96190    38    37    19    39
 C    -0.83680   1.17760  -3.62190    39    40    38    49
 C    -1.85510   0.17750  -3.57840    40    42    41    39
 C    -3.08110   0.39200  -2.97880    41    20    40    57
 C    -1.47660  -1.14440  -3.56800    42    51    40    55
 C     3.06550   2.97680  -1.27400    43    44    46    52
 C     1.89640   3.42580  -1.68760    44    43    27    45
 C     1.18820   2.81520  -2.68930    45    44    37    48
 C     3.62280   1.89170  -1.89370    46    43    76    47
 C     2.91570   1.14670  -2.88000    47    68    46    48
 C     1.62200   1.62970  -3.29160    48    45    49    47
 C     0.57550   0.77010  -3.74920    49    48    50    39
 C     0.90910  -0.62530  -3.78020    50    51    69    49
 C    -0.17020  -1.51020  -3.66590    51    42    70    50
 C     3.41930   3.01850   0.06230    52    54    43    25
 C     4.32390   1.33870   1.37820    53    54    80    23
 C     4.31540   2.02390   0.21620    54    52    53    76
 C    -2.17780  -2.14530  -2.87330    55    67    56    42
 C    -3.33200  -1.90870  -2.18640    56    55    57    61
 C    -3.82090  -0.61280  -2.33380    57    58    56    41
 C    -4.57720  -0.01760  -1.37520    58    59    57     3
 C    -4.79020  -0.67100  -0.20480    59    58    62     4
 C    -2.50960  -3.52310  -0.51710    60    63    66    61
 C    -3.53750  -2.62110  -0.97050    61    62    56    60
 C    -4.28030  -1.91820   0.00090    62    59    65    61
 C    -2.30540  -3.58280   0.86340    63    90    64    60
 C    -2.99770  -2.77500   1.74150    64    65     9    63
 C    -3.95540  -1.97420   1.33420    65    64    62     5
 C    -1.35040  -3.79860  -1.28710    66    67    60    74
 C    -1.26700  -3.08490  -2.49040    67    70    55    66
 C     3.19250  -0.24540  -2.88760    68    69    47    78
 C     2.17550  -1.11970  -3.32860    69    68    72    50
 C    -0.08690  -2.73670  -3.05750    70    71    67    51
 C     1.05250  -3.14490  -2.55330    71    70    72    73
 C     2.17070  -2.40280  -2.72250    72    71    79    69
 C     1.08410  -3.85730  -1.37850    73    84    71    74
 C    -0.08450  -4.15440  -0.68130    74    73    89    66
 C     4.71130   0.03510  -0.96700    75    76    78    82
 C     4.47900   1.35300  -0.97210    76    75    46    54
 C     3.94510  -1.97130  -1.29630    77    79    81    78
 C     4.10080  -0.74620  -1.90840    78    75    77    68
 C     2.98650  -2.78110  -1.69770    79    77    72    84
 C     4.57260  -0.00200   1.38340    80    88    82    53
 C     4.28600  -1.91280   0.03260    81    82    77    86
 C     4.79690  -0.66550   0.21570    82    81    80    75
 C     2.18220  -2.12740   2.89140    83    87    93    28
 C     2.31030  -3.59970  -0.81900    84    73    79    85
 C     2.51900  -3.53070   0.55850    85    84    92    86
 C     3.54180  -2.61910   1.00490    86    81    87    85
 C     3.34020  -1.88980   2.21150    87    83    88    86
 C     3.82380  -0.59530   2.34690    88    80    87    33
 C     0.08410  -4.15120   0.72540    89    90    74    92
 C    -1.07850  -3.84270   1.42420    90    91    63    89
 C    -1.05350  -3.12910   2.59770    91    94     9    90
 C     1.35660  -3.79930   1.32290    92    93    85    89
 C     1.27230  -3.07370   2.51910    93    94    83    92
 C     0.09380  -2.71870   3.08250    94    91    93    34
