    46
C46-C1-52                                                                       
 C     1.63200  -2.91860   0.00060     1     2     3    27
 C     0.32350  -3.12370  -0.12360     2     1    35    13
 C     1.85580  -2.27680   1.14740     3     1     4     6
 C     2.78740  -1.29070   0.93030     4     3     5    25
 C     2.62650  -0.09210   1.59180     5    17     4     9
 C     0.63270  -2.06970   1.76930     6     3     8    13
 C    -0.94520  -0.36540   2.32180     7     8    20    11
 C     0.37760  -0.81040   2.33730     8     7     6     9
 C     1.39220   0.16750   2.23550     9     8    22     5
 C    -2.99710  -0.22060   1.41080    10    39    14    11
 C    -2.00990  -1.11670   1.75380    11    10    12     7
 C    -1.67830  -2.20940   0.91530    12    13    11    16
 C    -0.38010  -2.71130   1.00250    13     2    12     6
 C    -3.73290  -0.23220   0.25610    14    15    10    44
 C    -3.16300  -1.06570  -0.65730    15    14    46    16
 C    -2.22670  -2.04740  -0.40270    16    15    34    12
 C     3.04530   1.05580   0.98400    17     5    18    23
 C     2.09510   2.00810   1.23260    18    19    22    17
 C     1.87960   2.73670   0.10470    19    26    18    43
 C    -1.26300   1.00000   2.12620    20    39    21     7
 C    -0.26650   1.90920   1.75070    21    20    22    42
 C     1.06150   1.51670   1.97280    22    18    21     9
 C     3.41310   1.14130  -0.33750    23    26    17    24
 C     3.12390  -0.00720  -1.07140    24    25    23    29
 C     3.02860  -1.25720  -0.48150    25    27    24     4
 C     2.67540   2.15400  -0.82320    26    28    23    19
 C     2.17120  -2.20020  -0.98700    27     1    25    32
 C     1.82700   1.68820  -1.73630    28    26    36    29
 C     2.05370   0.34670  -1.95890    29    28    31    24
 C    -0.35990   0.05420  -2.37230    30    33    31    38
 C     0.97120  -0.51030  -2.26960    31    29    32    30
 C     1.09670  -1.84210  -1.79550    32    27    35    31
 C    -1.47490  -0.79010  -2.09230    33    46    34    30
 C    -1.27810  -2.01510  -1.44990    34    35    33    16
 C    -0.03730  -2.52630  -1.31720    35    34     2    32
 C     0.54690   2.14850  -1.56420    36    28    38    43
 C    -1.81370   1.80340  -1.37690    37    45    38    41
 C    -0.58140   1.45080  -1.97050    38    36    37    30
 C    -2.50940   1.03800   1.59530    39    40    20    10
 C    -2.88650   1.82280   0.55770    40    44    39    41
 C    -1.79440   2.40480  -0.07310    41    40    42    37
 C    -0.54340   2.65680   0.51800    42    43    41    21
 C     0.57190   2.84740  -0.31090    43    19    42    36
 C    -3.64150   1.05360  -0.25730    44    40    45    14
 C    -2.93080   0.99230  -1.40510    45    46    44    37
 C    -2.67550  -0.29610  -1.67720    46    45    33    15
