    46
C46-C1-105                                                                      
 C     0.00970   1.52640   2.15610     1     6     2    30
 C     1.13480   0.67140   2.27890     2     1     3     7
 C     2.30110   1.15380   1.61040     3     4    29     2
 C     3.11520   0.25050   0.96980     4     5    14     3
 C     2.86870  -1.04480   1.03010     5     4     8    10
 C    -1.24890   1.04070   2.25710     6     1    35    11
 C     0.83690  -0.77860   2.33460     7     8    12     2
 C     1.82390  -1.61820   1.70840     8     5    13     7
 C     2.00370  -2.48250  -0.31290     9    10    13    25
 C     2.91570  -1.51660  -0.26710    10     9    19     5
 C    -1.59420  -0.28370   2.31520    11     6    38    12
 C    -0.56600  -1.23460   2.26470    12    11    45     7
 C     1.43180  -2.67050   0.92120    13    46     8     9
 C     3.36020   0.62110  -0.32920    14    15     4    19
 C     2.82850   1.84640  -0.41560    15    14    16    29
 C     1.89700   2.03010  -1.37020    16    15    21    17
 C     1.39290   1.02960  -2.17520    17    16    23    18
 C     1.88830  -0.31210  -2.06470    18    17    19    26
 C     2.99050  -0.45690  -1.14220    19    10    14    18
 C    -0.32490   2.37680  -1.42650    20    21    33    23
 C     0.85870   2.73040  -0.84370    21    16    20    28
 C    -0.87940   0.32620  -2.50620    22    23    24    27
 C     0.02890   1.31710  -2.30890    23    22    17    20
 C    -2.14780   0.46900  -2.00980    24    43    22    32
 C     1.01240  -2.47120  -1.26720    25     9    44    26
 C     0.86910  -1.36140  -2.14950    26    25    27    18
 C    -0.49960  -1.02150  -2.40830    27    22    42    26
 C     1.05040   2.88000   0.51330    28    29    30    21
 C     2.23700   2.25460   0.76080    29    28    15     3
 C    -0.07560   2.62080   1.24210    30    28    31     1
 C    -1.37880   2.55830   0.70090    31    35    30    33
 C    -2.53870   1.46430  -1.11870    32    24    36    33
 C    -1.55230   2.39730  -0.72080    33    32    20    31
 C    -3.09320   0.88260   1.10450    34    35    36    38
 C    -2.13690   1.73820   1.49330    35    34     6    31
 C    -3.34880   0.75330  -0.22070    36    34    40    32
 C    -2.93370  -1.28770   0.60710    37    38    39    40
 C    -2.78260  -0.35920   1.59470    38    37    34    11
 C    -1.94830  -2.25430   0.47530    39    37    41    45
 C    -3.33780  -0.58760  -0.53190    40    43    36    37
 C    -1.37940  -2.53460  -0.80190    41    44    42    39
 C    -1.64080  -1.67040  -1.84790    42    43    41    27
 C    -2.63260  -0.75610  -1.67530    43    40    24    42
 C    -0.10830  -2.92230  -0.57730    44    41    46    25
 C    -0.86470  -2.35280   1.39950    45    46    39    12
 C     0.15700  -2.96020   0.75690    46    13    45    44
