    46
C46-C1-36                                                                       
 C    -2.52340  -1.19780  -1.47710     1     5     3     2
 C    -2.94150  -1.73090  -0.26310     2    10    23     1
 C    -2.53210   0.16450  -1.70250     3     1     6     8
 C    -0.21870  -1.31200  -2.29060     4     5    36     7
 C    -1.36500  -1.85420  -1.77050     5    22     1     4
 C    -1.39120   0.77080  -2.29130     6    13     3     7
 C    -0.15960   0.07600  -2.57090     7     4     6    15
 C    -3.03300   1.03020  -0.68260     8    11     9     3
 C    -3.33200   0.50000   0.57800     9    10    21     8
 C    -3.26610  -0.87770   0.74070    10     2    18     9
 C    -2.21320   2.14210  -0.74040    11    13     8    19
 C    -0.14650   2.55410  -1.42090    12    13    16    41
 C    -1.31580   2.01280  -1.75470    13    12     6    11
 C     2.22190  -0.07030  -1.89330    14    46    35    15
 C     1.11570   0.72520  -2.28860    15    14    16     7
 C     1.06740   2.00580  -1.64960    16    12    45    15
 C    -1.95410  -0.02660   2.25060    17    18    21    25
 C    -2.38860  -1.18390   1.75260    18    17    10    24
 C    -1.51010   2.70960   0.32620    19    41    20    11
 C    -1.61490   2.00840   1.50680    20    21    19    32
 C    -2.54260   1.01190   1.60760    21    17    20     9
 C    -1.04860  -2.72950  -0.78380    22    23    30     5
 C    -1.95720  -2.58930   0.18510    23    22     2    24
 C    -1.49070  -2.16970   1.41560    24    18    23    28
 C    -0.64590   0.21600   2.51390    25    17    27    32
 C     1.64910  -0.33670   2.18260    26    37    27    31
 C     0.33770  -0.78780   2.35040    27    26    25    28
 C    -0.08610  -2.02220   1.66490    28    24    29    27
 C     0.86430  -2.50110   0.65840    29    38    30    28
 C     0.29770  -2.72540  -0.63680    30    22    36    29
 C     1.95360   1.02860   1.87490    31    43    33    26
 C    -0.39930   1.55440   2.10290    32    33    25    20
 C     0.89350   1.92400   1.67180    33    31    32    42
 C     2.87110  -1.69720  -0.50660    34    39    35    38
 C     2.07870  -1.43870  -1.60400    35    36    34    14
 C     0.85540  -1.99630  -1.71530    36    35     4    30
 C     2.62340  -1.07160   1.55590    37    40    26    38
 C     2.17940  -2.02790   0.66730    38    37    29    34
 C     3.67860  -0.64120  -0.24940    39    40    34    46
 C     3.57430  -0.26030   1.02060    40    39    43    37
 C    -0.24770   2.97840  -0.13120    41    12    42    19
 C     0.94660   2.68080   0.46610    42    41    45    33
 C     3.09920   1.00050   1.07860    43    40    44    31
 C     2.93700   1.49060  -0.21490    44    45    46    43
 C     1.87670   2.27980  -0.52170    45    44    42    16
 C     3.20200   0.38520  -1.00870    46    39    44    14
