    46
C46-C1-61                                                                       
 C     2.36770   1.60140   1.38130     1     2    30     6
 C     3.23650   0.77900   0.77590     2     3     1    12
 C     3.17260  -0.52670   1.02920     3     2     8     4
 C     2.14610  -1.08460   1.80100     4    11     3     5
 C     1.11160  -0.26220   2.34470     5     4     6    10
 C     1.29900   1.14640   2.13620     6     1    32     5
 C     2.44980  -2.25340  -0.04330     7    19     8    11
 C     3.22550  -1.17370  -0.18650     8     7     3    15
 C    -1.31580   0.20270   2.29740     9    42    33    10
 C    -0.25700  -0.76410   2.34530    10     9     5    45
 C     1.79110  -2.23950   1.16270    11     4    46     7
 C     3.16240   0.99390  -0.57840    12     2    13    15
 C     2.33170   2.07370  -0.77150    13    12    14    30
 C     1.32970   1.94960  -1.70740    14    20    13    18
 C     3.01630  -0.23830  -1.20790    15    12     8    17
 C     1.15670  -1.63560  -1.92180    16    19    24    17
 C     1.89080  -0.42070  -2.07740    17    18    16    15
 C     1.07350   0.70350  -2.34680    18    17    26    14
 C     1.50360  -2.54750  -0.93880    19     7    41    16
 C     0.09460   2.48120  -1.45670    20    21    14    28
 C    -0.88060   1.75130  -1.98940    21    20    23    26
 C    -2.85700   0.71120  -1.22980    22    23    36    27
 C    -2.02630   1.81950  -1.26370    23    21    22    31
 C    -0.26180  -1.69620  -2.00550    24    25    38    16
 C    -1.05590  -0.58160  -2.34450    25    26    24    27
 C    -0.33230   0.60110  -2.51390    26    21    25    18
 C    -2.35550  -0.51710  -1.76110    27    40    25    22
 C    -0.33810   2.97950  -0.23630    28    29    20    31
 C     0.59280   2.82620   0.77890    29    30    28    32
 C     1.89310   2.50510   0.48230    30     1    29    13
 C    -1.67000   2.55470  -0.10050    31    34    28    23
 C     0.22250   1.98540   1.84450    32    33     6    29
 C    -1.06840   1.54950   1.95460    33    32     9    34
 C    -2.10370   1.96090   1.08610    34    35    31    33
 C    -3.02260   0.95780   1.06220    35    34    42    36
 C    -3.56740   0.40290  -0.07540    36    37    35    22
 C    -3.53310  -0.93700   0.07150    37    40    36    43
 C    -0.71190  -2.60050  -1.00830    38    41    39    24
 C    -1.89750  -2.38310  -0.37600    39    38    40    44
 C    -2.82460  -1.51690  -0.90220    40    37    39    27
 C     0.38400  -2.95590  -0.31650    41    38    19    46
 C    -2.56280  -0.08290   1.81450    42    43    35     9
 C    -2.87730  -1.25160   1.22840    43    42    37    44
 C    -1.85570  -2.14370   1.03850    44    43    45    39
 C    -0.57670  -2.04710   1.68050    45    46    44    10
 C     0.49950  -2.67560   1.04720    46    11    41    45
