    46
C46-C1-78                                                                       
 C     2.32720  -1.92740   0.99230     1     2    29     6
 C     3.28750  -1.19820   0.42190     2     1     3    17
 C     3.47440   0.08140   0.80370     3     2     8     4
 C     2.49570   0.65460   1.63810     4    10     3     5
 C     1.42030  -0.07720   2.25900     5     6     4    15
 C     1.40650  -1.47000   1.91310     6     1    31     5
 C     2.81680   1.87860  -0.21730     7     8    10    19
 C     3.60030   0.80890  -0.32940     8     7     3    16
 C     0.94240   2.40320   1.16740     9    10    11    12
 C     2.19170   1.88830   1.03270    10     9     7     4
 C     0.31350   2.86420   0.03430    11    41    18     9
 C    -0.09000   1.84350   1.92680    12     9    44    15
 C    -2.29080   0.18590   1.98820    13    46    43    14
 C    -1.05470  -0.27330   2.41640    14    13    32    15
 C     0.12340   0.52590   2.45720    15    14    12     5
 C     3.20020   0.04640  -1.38560    16    17     8    25
 C     3.07250  -1.22710  -0.94210    17    16    21     2
 C     0.71690   2.41430  -1.19840    18    19    11    26
 C     1.95160   1.86720  -1.31990    19    18     7    25
 C    -0.38780  -2.03560  -1.67500    20    36    22    27
 C     1.95700  -1.97950  -1.19160    21    17    29    22
 C     0.88180  -1.48870  -1.98230    22    20    21    23
 C     0.91220  -0.06930  -2.38570    23    25    24    22
 C    -0.37530   0.62360  -2.42640    24    35    26    23
 C     2.09730   0.63410  -1.98470    25    16    19    23
 C    -0.43550   1.90700  -1.78600    26    18    38    24
 C    -0.68360  -2.72760  -0.45980    27    28    30    20
 C     0.34820  -2.78240   0.43290    28    29    27    31
 C     1.60720  -2.55630   0.02480    29    28     1    21
 C    -1.98150  -2.38680  -0.06590    30    34    27    33
 C     0.19750  -2.12960   1.66830    31    32     6    28
 C    -1.03260  -1.60770   1.97170    32    31    14    33
 C    -2.20030  -1.84910   1.21990    33    46    32    30
 C    -2.54260  -1.67790  -1.10970    34    36    37    30
 C    -1.59140  -0.07270  -2.32500    35    36    40    24
 C    -1.53920  -1.38950  -1.97250    36    20    34    35
 C    -3.36730  -0.60630  -0.95130    37    34    45    40
 C    -1.55860   2.28480  -0.99530    38    39    41    26
 C    -2.70180   1.52980  -0.92270    39    40    38    42
 C    -2.73350   0.39030  -1.67050    40    39    37    35
 C    -1.00540   2.76960   0.16800    41    11    44    38
 C    -3.25430   1.17170   0.31340    42    45    39    43
 C    -2.45490   1.43290   1.43520    43    44    13    42
 C    -1.34560   2.22720   1.38620    44    43    41    12
 C    -3.67840  -0.14460   0.29360    45    37    46    42
 C    -3.03760  -0.75550   1.33520    46    45    13    33
