    46
C46-C2-77                                                                       
 C    -3.25390   1.08900  -0.63750     1     2    22     4
 C    -3.69340  -0.05880  -0.08150     2     1     3    20
 C    -3.35200  -0.33620   1.21310     3    11     2     7
 C    -2.46080   2.03360   0.01580     4    31     1     6
 C    -0.61230   2.04770   1.57360     5     6    13     9
 C    -1.94650   1.67150   1.30320     6     5     7     4
 C    -2.37310   0.43440   1.85210     7     3     6    15
 C     1.48620   2.39450   0.88300     8    44     9    35
 C     0.20530   2.73150   0.62340     9     8    30     5
 C    -1.71340  -1.67300   1.83830    10    11    12    15
 C    -2.87200  -1.59240   1.19680    11    10    19     3
 C    -0.77850  -2.34380   1.09860    12    10    17    24
 C     0.29370   1.24420   2.31150    13    44    14     5
 C    -0.01280  -0.12200   2.51670    14    15    13    16
 C    -1.35800  -0.44540   2.34700    15    10    14     7
 C     1.04120  -1.07460   2.13280    16    46    17    14
 C     0.58300  -2.16490   1.26930    17    12    18    16
 C     1.38980  -2.48280   0.15880    18    43    17    25
 C    -2.69450  -2.04250  -0.05130    19    11    20    24
 C    -3.17580  -1.09790  -0.88030    20    19    23     2
 C    -1.54260   1.58990  -1.91110    21    22    31    29
 C    -2.55370   0.74380  -1.77260    22    21    23     1
 C    -2.36200  -0.60320  -1.87750    23    22    20    27
 C    -1.39920  -2.49810  -0.18290    24    19    26    12
 C     0.78120  -2.35760  -1.12880    25    37    26    18
 C    -0.58410  -2.17990  -1.29060    26    25    24    27
 C    -1.04150  -1.08260  -2.14750    27    23    26    28
 C     0.01210  -0.12180  -2.50900    28    38    29    27
 C    -0.28710   1.24200  -2.28740    29    21    34    28
 C    -0.21460   2.76970  -0.67290    30    31     9    34
 C    -1.51050   2.46880  -0.89240    31    21    30     4
 C     2.36790   0.42830  -1.83570    32    39    33    38
 C     1.93580   1.68020  -1.32020    33    34    32    35
 C     0.61830   2.08090  -1.59940    34    33    29    30
 C     2.45850   1.99130  -0.02400    35     8    41    33
 C     2.87150  -1.60420  -1.20440    36    37    43    39
 C     1.72330  -1.68720  -1.86850    37    36    38    25
 C     1.35600  -0.45990  -2.33810    38    37    28    32
 C     3.34930  -0.34390  -1.18980    39    36    40    32
 C     3.69500  -0.04170   0.09950    40    41    39    42
 C     3.26880   1.09400   0.67670    41    40    45    35
 C     3.15910  -1.08610   0.87580    42    43    46    40
 C     2.68370  -2.03450   0.04750    43    36    42    18
 C     1.55820   1.59800   1.96450    44    45     8    13
 C     2.58970   0.77630   1.83140    45    44    46    41
 C     2.36260  -0.57160   1.88040    46    45    42    16
