    46
C46-Cs-33                                                                       
 C    -2.96260   1.48870  -0.04280     1     2     4    29
 C    -2.03120   2.41440   0.33320     2     1     3     6
 C    -1.12610   3.03330  -0.50720     3     5     2    28
 C    -3.40550   0.47660   0.78400     4    35     1    12
 C     0.01650   3.36470   0.08930     5     3     9     7
 C    -1.19600   2.01440   1.41940     6     7    13     2
 C     0.00410   2.61660   1.20550     7     5    16     6
 C     2.04860   2.42440   0.34720     8    10     9    16
 C     1.14900   3.02890  -0.52560     9     5     8    20
 C     2.97160   1.49580  -0.03560    10     8    11    18
 C     3.40900   0.47930   0.78920    11    25    10    17
 C    -2.43960   0.02070   1.70170    12    37    13     4
 C    -1.26630   0.73090   1.99030    13    12     6    14
 C     0.00080   0.03990   2.21220    14    13    44    15
 C     1.26720   0.73660   1.98870    15    17    16    14
 C     1.19870   2.02080   1.42450    16     7    15     8
 C     2.43960   0.02070   1.70440    17    46    15    11
 C     2.67050   0.82800  -1.25540    18    22    19    10
 C     1.45510   1.09980  -1.92400    19    20    21    18
 C     0.70770   2.23050  -1.58020    20     9    19    28
 C     0.68910  -0.03660  -2.26170    21    26    24    19
 C     3.16840  -0.44860  -1.06840    22    25    23    18
 C     2.34360  -1.52460  -1.32400    23    24    22    40
 C     1.12190  -1.31700  -1.89550    24    23    33    21
 C     3.81670  -0.63560   0.10690    25    43    22    11
 C    -0.70370  -0.03570  -2.26940    26    21    30    27
 C    -1.46900   1.09790  -1.92940    27    28    26    29
 C    -0.71860   2.22740  -1.57960    28    27     3    20
 C    -2.68100   0.81720  -1.26270    29    32    27     1
 C    -1.13620  -1.31910  -1.90360    30    31    33    26
 C    -2.35400  -1.53620  -1.32220    31    30    32    39
 C    -3.18030  -0.45590  -1.07950    32    35    29    31
 C    -0.00510  -2.04230  -1.53830    33    24    30    42
 C    -3.28450  -1.75270   0.62510    34    35    37    39
 C    -3.81830  -0.63900   0.10240    35    34    32     4
 C    -1.19630  -1.96420   1.49920    36    37    44    38
 C    -2.40740  -1.34670   1.56020    37    34    36    12
 C    -1.22020  -2.76860   0.31320    38    39    42    36
 C    -2.44860  -2.40530  -0.23990    39    34    31    38
 C     2.44670  -2.39570  -0.23800    40    43    41    23
 C     1.22210  -2.76900   0.31560    41    42    40    45
 C     0.00350  -2.85300  -0.35650    42    41    38    33
 C     3.28600  -1.74980   0.62790    43    25    46    40
 C     0.00380  -1.39500   1.93520    44    45    36    14
 C     1.20010  -1.96760   1.50270    45    46    44    41
 C     2.40940  -1.34780   1.56480    46    43    45    17
