    46
C46-Cs-99                                                                       
 C     3.24120  -0.68040  -0.88520     1     2    28     3
 C     3.23040   0.67530  -0.87870     2     1    10     4
 C     2.29450  -1.38440  -1.61670     3    35     1     6
 C     2.28510   1.38400  -1.60520     4    12     2     5
 C     1.31100   0.69970  -2.32470     5     4    22     6
 C     1.30960  -0.70660  -2.33310     6     3     7     5
 C    -0.02600  -1.12860  -2.35970     7     6    43     9
 C    -1.81040  -2.11750  -1.08550     8    46    36     9
 C    -0.49140  -2.22810  -1.55210     9     8    34     7
 C     3.22290   1.10300   0.42590    10    11     2    15
 C     2.34590   2.12490   0.48020    11    10    16    12
 C     1.79940   2.34980  -0.74850    12    11    24     4
 C     2.01940  -0.00490   2.13620    13    15    14    29
 C     1.16440   1.11830   2.25460    14    18    16    13
 C     3.11360  -0.01500   1.24060    15    28    10    13
 C     1.33290   2.21010   1.38830    16    11    17    14
 C     0.20640   2.70900   0.73440    17    20    16    24
 C    -0.13040   0.68190   2.55020    18    30    14    19
 C    -1.26410   1.36350   2.08700    19    18    20    40
 C    -1.06300   2.38100   1.13970    20    21    17    19
 C    -2.07530   2.25680   0.24190    21    20    39    25
 C    -0.02460   1.13870  -2.35410    22     5    43    23
 C    -0.49760   2.24670  -1.55980    23    25    24    22
 C     0.48430   2.72250  -0.66050    24    12    23    17
 C    -1.83130   2.13430  -1.12520    25    45    21    23
 C     2.35990  -2.13610   0.47110    26    28    35    27
 C     1.34730  -2.20310   1.38930    27    26    31    29
 C     3.24340  -1.11910   0.41850    28    26     1    15
 C     1.15830  -1.12290   2.26730    29    30    27    13
 C    -0.13860  -0.71260   2.57270    30    29    18    33
 C     0.21120  -2.69310   0.72880    31    32    27    34
 C    -1.05690  -2.36950   1.15600    32    36    31    33
 C    -1.28330  -1.37590   2.12290    33    30    32    41
 C     0.49880  -2.70690  -0.66320    34    35     9    31
 C     1.81210  -2.35230  -0.75870    35    26    34     3
 C    -2.08330  -2.24760   0.26810    36    37    32     8
 C    -3.01190  -1.34770   0.68430    37    36    38    41
 C    -3.46240  -0.66920  -0.41670    38    42    37    46
 C    -2.98680   1.33480   0.66500    39    21    42    40
 C    -2.46260   0.68930   1.78190    40    39    41    19
 C    -2.47810  -0.70900   1.80060    41    37    40    33
 C    -3.45460   0.68440  -0.44300    42    38    39    45
 C    -0.85190   0.00560  -2.53390    43    44     7    22
 C    -2.16980   0.00040  -2.13640    44    46    43    45
 C    -2.68040   1.10860  -1.49850    45    42    44    25
 C    -2.65830  -1.09050  -1.46290    46    44     8    38
