    46
C46-Cs-28                                                                       
 C    -0.98580  -1.18910  -2.13880     1     2    33     7
 C    -1.74900  -0.00860  -2.05990     2     4     1     3
 C    -2.91830  -0.00250  -1.26090     3    10    32     2
 C    -0.98350   1.16630  -2.13330     4     2     8     5
 C     0.42300   1.15700  -2.30740     5    13     6     4
 C     1.21200  -0.01270  -2.30930     6     5     7    15
 C     0.42940  -1.19350  -2.31150     7    36     6     1
 C    -1.31230   2.25320  -1.28770     8    11     9     4
 C    -2.28980   2.10340  -0.35550     9     8    10    18
 C    -3.22900   1.11050  -0.45680    10    17     9     3
 C    -0.13500   2.79930  -0.93700    11     8    13    23
 C     1.98220   2.26320  -0.92450    12    13    43    16
 C     0.87480   2.24960  -1.64090    13    12    11     5
 C     2.83730  -1.21270  -0.85170    14    35    46    15
 C     2.48540  -0.00190  -1.54900    15    14    16     6
 C     2.84590   1.20330  -0.84570    16    12    45    15
 C    -3.63290   0.65720   0.74790    17    20    10    19
 C    -1.85300   2.08270   1.00220    18    19    24     9
 C    -2.62000   1.09660   1.55930    19    18    17    27
 C    -3.63320  -0.66540   0.70720    20    17    32    21
 C    -2.59060  -1.05110   1.50430    21    22    20    27
 C    -1.83690  -2.04090   0.93630    22    21    29    31
 C     0.31000   2.97340   0.36830    23    43    11    24
 C    -0.50060   2.31300   1.32990    24    18    23    25
 C     0.18130   1.26740   2.10170    25    39    26    24
 C    -0.54980   0.01260   2.31110    26    27    25    28
 C    -1.92560   0.01870   2.07390    27    19    21    26
 C     0.17310  -1.24440   2.08630    28    41    26    29
 C    -0.49630  -2.27720   1.28570    29    22    30    28
 C     0.30590  -2.95170   0.32740    30    38    34    29
 C    -2.33510  -2.13080  -0.40470    31    32    33    22
 C    -3.27550  -1.14510  -0.50630    32    20    31     3
 C    -1.32150  -2.29330  -1.30990    33    34    31     1
 C    -0.13330  -2.83120  -0.98280    34    33    36    30
 C     1.99510  -2.29050  -0.94490    35    36    38    14
 C     0.89090  -2.30200  -1.67780    36    35    34     7
 C     2.33350  -1.98340   1.14360    37    38    41    46
 C     1.66760  -2.75720   0.29700    38    37    35    30
 C     1.59040   1.21270   1.96130    39    40    42    25
 C     2.24150   0.01180   1.94640    40    41    39    44
 C     1.57870  -1.17620   1.96960    41    40    37    28
 C     2.37590   2.01000   1.13580    42    43    45    39
 C     1.67290   2.77200   0.30620    43    42    12    23
 C     3.34870   0.01240   1.11450    44    45    46    40
 C     3.29360   1.19270   0.49280    45    44    42    16
 C     3.25680  -1.17540   0.49240    46    44    37    14
