    46
C46-C1-73                                                                       
 C    -2.71900  -0.22850  -1.76590     1     9     3     2
 C    -1.77460   0.69750  -2.16830     2     1     4    17
 C    -3.56100  -0.08840  -0.69920     3    33     1    19
 C    -1.71420   1.89090  -1.46630     4     2    34     5
 C    -0.44580   2.38620  -1.13670     5     4     6    37
 C     0.77890   1.86730  -1.65090     6     7     5    16
 C     1.93830   2.08760  -0.86280     7    43     8     6
 C     1.78070   2.42230   0.47760     8    36    45     7
 C    -2.07240  -1.41100  -1.67960     9     1    12    10
 C    -2.42810  -2.06980  -0.52300    10    11     9    19
 C    -1.36600  -2.65650   0.12370    11    10    22    15
 C    -0.78260  -1.33220  -2.15620    12     9    14    17
 C     1.57180  -1.61660  -1.76360    13    42    14    18
 C     0.26430  -2.09320  -1.62670    14    13    12    15
 C    -0.05910  -2.76310  -0.40510    15    39    11    14
 C     0.70360   0.59640  -2.35840    16    17    18     6
 C    -0.57770   0.03580  -2.48600    17     2    16    12
 C     1.81700  -0.27230  -2.19860    18    44    16    13
 C    -3.28600  -1.16290   0.12070    19     3    20    10
 C    -2.90440  -0.65750   1.36690    20    21    23    19
 C    -1.79410  -1.18220   1.98510    21    22    20    24
 C    -1.13800  -2.24220   1.42380    22    32    21    11
 C    -2.97070   0.71260   1.22620    23    33    20    26
 C    -0.74590  -0.36190   2.48550    24    25    28    21
 C    -0.79270   1.03790   2.30390    25    24    26    27
 C    -1.93550   1.54650   1.64620    26    35    23    25
 C     0.45960   1.64230   2.03400    27    25    36    31
 C     0.48670  -1.05180   2.33970    28    32    30    24
 C     2.65240  -1.10210   1.24100    29    38    40    30
 C     1.73010  -0.43910   2.13090    30    28    31    29
 C     1.71480   0.97630   2.06080    31    45    30    27
 C     0.16730  -2.20720   1.66850    32    22    39    28
 C    -3.43280   1.08240  -0.01740    33     3    34    23
 C    -2.58250   2.07550  -0.39620    34    35    33     4
 C    -1.77990   2.47450   0.61790    35    34    37    26
 C     0.55420   2.61260   1.00110    36     8    37    27
 C    -0.53510   2.83100   0.21640    37    35    36     5
 C     3.56580  -0.39990   0.43500    38    41    46    29
 C     0.90390  -2.64980   0.62060    39    32    40    15
 C     2.15630  -2.16070   0.41640    40    39    42    29
 C     3.47010  -0.87980  -0.83250    41    42    44    38
 C     2.60240  -1.88370  -0.85700    42    41    40    13
 C     3.02610   1.24530  -0.88390    43    44     7    46
 C     3.01290   0.11410  -1.61740    44    41    43    18
 C     2.59360   1.61790   1.20470    45    46     8    31
 C     3.44660   0.96100   0.40840    46    45    38    43
