    46
C46-C1-19                                                                       
 C    -3.53430  -1.52080   0.01140     1    30     5     2
 C    -2.48950  -1.97040   0.76210     2     1    15    38
 C     1.57100  -1.38160   1.80500     3    16    39     4
 C     0.19910  -1.69540   1.66170     4     3    37    14
 C    -2.95560  -1.29940  -1.18650     5     1     8     6
 C    -3.06930   0.05540  -1.45460     6     5     7    19
 C    -1.94290   0.69670  -1.97830     7    20     6    11
 C    -1.72020  -1.89430  -1.30010     8     5    10    15
 C     0.64630  -1.74160  -1.67920     9    10    26    13
 C    -0.64350  -1.34560  -1.99890    10     9     8    11
 C    -0.77300   0.01070  -2.36330    11    28     7    10
 C     2.17500  -2.24810  -0.16680    12    13    16    43
 C     0.88440  -2.45360  -0.48410    13    12    14     9
 C    -0.14450  -2.45990   0.45880    14    15    13     4
 C    -1.43710  -2.39680   0.00350    15     2    14     8
 C     2.62690  -1.90510   1.05750    16    12    46     3
 C    -3.07720   1.58100   0.23810    17    18    19    32
 C    -1.99850   2.26820  -0.24100    18    17    22    20
 C    -3.78960   0.58430  -0.36830    19    17    30     6
 C    -1.46140   1.91010  -1.48540    20    21     7    18
 C    -0.10490   2.01760  -1.72770    21    24    20    28
 C    -1.03540   2.36430   0.76150    22    23    18    31
 C     0.27660   2.57360   0.50240    23    22    34    24
 C     0.76540   2.55670  -0.80950    24    25    21    23
 C     2.05530   2.17650  -0.72390    25    24    40    29
 C     1.82670  -1.00450  -1.90340    26    43     9    27
 C     1.70760   0.38100  -2.17000    27    26    28    29
 C     0.36690   0.83330  -2.33160    28    11    21    27
 C     2.66480   1.16860  -1.45940    29    25    45    27
 C    -4.03400  -0.40300   0.56350    30     1    33    19
 C    -1.42510   1.46920   1.75670    31    32    22    36
 C    -2.70370   1.09460   1.47360    32    33    31    17
 C    -3.21250  -0.14080   1.63530    33    32    30    38
 C     1.27930   2.05240   1.30970    34    40    23    35
 C     0.95590   0.91990   2.12000    35    39    36    34
 C    -0.42450   0.57350   2.24770    36    35    31    37
 C    -0.84790  -0.82170   2.12760    37    38     4    36
 C    -2.20470  -1.08440   1.78900    38     2    33    37
 C     1.97700  -0.06060   2.09330    39     3    42    35
 C     2.43820   2.03180   0.56780    40    41    25    34
 C     3.39200   1.11060   0.63500    41    40    42    45
 C     3.25740   0.07590   1.51440    42    46    41    39
 C     2.83130  -1.46580  -1.07390    43    12    44    26
 C     3.81840  -0.75130  -0.44660    44    45    43    46
 C     3.64620   0.59370  -0.62790    45    44    41    29
 C     3.66720  -1.05360   0.88810    46    42    16    44
