    46
C46-C2-43                                                                       
 C    -1.67210  -1.31140  -1.79440     1     2     6    35
 C    -2.93150  -0.90770  -1.37520     2    27     4     1
 C    -3.90210  -0.17380   0.38540     3     8    29     4
 C    -3.54010  -1.35080  -0.22490     4    10     3     2
 C     0.47490  -2.19960  -1.23560     5     6    26    36
 C    -0.90030  -2.23730  -1.05630     6     5     1     9
 C    -2.41430  -1.19120   1.63430     7    14     8    10
 C    -3.12770  -0.04720   1.50310     8     7     3    13
 C    -1.42700  -2.51080   0.23250     9    10    23     6
 C    -2.66460  -2.02270   0.57370    10     4     7     9
 C    -1.69190   2.40100  -0.26140    11    19    12    30
 C    -2.75290   1.76660   0.35190    12    11    29    13
 C    -2.39810   1.11380   1.57290    13     8    12    17
 C    -1.11780  -1.25240   2.02150    14     7    23    16
 C     0.99630  -0.18280   2.34990    15    41    16    21
 C    -0.41060  -0.09150   2.40640    16    15    14    17
 C    -1.07000   1.17130   2.10530    17    18    13    16
 C    -0.17260   2.13120   1.59450    18    19    42    17
 C    -0.54060   2.67940   0.38670    19    31    11    18
 C     2.91570  -0.91980   1.39920    20    40    24    21
 C     1.66360  -1.32190   1.82330    21    20    22    15
 C     0.89600  -2.25190   1.08560    22    23    21    26
 C    -0.47650  -2.24060   1.24740    23    22    14     9
 C     3.50930  -1.31820   0.23100    24    25    20    44
 C     2.63830  -1.96830  -0.58650    25    24    46    26
 C     1.41380  -2.46970  -0.21420    26    25     5    22
 C    -3.01660   0.44320  -1.51830    27     2    28    29
 C    -1.84660   0.89620  -2.06140    28    27    30    35
 C    -3.59120   0.92350  -0.36740    29     3    27    12
 C    -1.20610   1.98880  -1.53290    30    28    32    11
 C     0.55120   2.68700  -0.38470    31    19    37    32
 C     0.18260   2.11330  -1.57890    32    31    30    33
 C     1.07500   1.14930  -2.09560    33    32    39    34
 C     0.40360  -0.10560  -2.41780    34    35    36    33
 C    -0.99970  -0.18890  -2.34770    35    28    34     1
 C     1.13830  -1.25770  -2.05700    36    46    34     5
 C     1.68830   2.40630   0.27720    37    31    38    42
 C     2.73540   1.75080  -0.33690    38    37    43    39
 C     2.40980   1.08750  -1.56890    39    45    33    38
 C     3.00180   0.43680   1.51960    40    20    41    43
 C     1.84330   0.90410   2.07660    41    40    42    15
 C     1.21700   2.00420   1.55700    42    41    18    37
 C     3.58660   0.90520   0.35700    43    44    40    38
 C     3.90880  -0.16070  -0.41440    44    43    45    24
 C     3.17090  -0.07170  -1.55860    45    46    44    39
 C     2.44840  -1.20230  -1.69650    46    45    36    25
