    46
C46-C2v-92                                                                      
 C     0.24840  -2.90820   0.68950     1     9     2    14
 C    -0.83930  -2.41880   1.37070     2     1    13     3
 C    -0.63880  -1.38880   2.32580     3    28     2     7
 C    -0.64430   1.38320   2.29070     4    27    33     6
 C     1.70920   1.37380   1.80990     5    10    44     6
 C     0.61950   0.71870   2.43640     6     5     4     7
 C     0.62920  -0.73820   2.44830     7     8     3     6
 C     1.71650  -1.39170   1.81990     8     9     7    45
 C     1.51930  -2.53290   1.04610     9    16     1     8
 C     1.51410   2.52920   1.04790    10    46    32     5
 C    -2.03890  -2.16490  -0.68440    11    17    13    12
 C    -0.83390  -2.42400  -1.37150    12    14    11    22
 C    -2.05720  -2.16400   0.71130    13    25    11     2
 C     0.26350  -2.92540  -0.71950    14    12    15     1
 C     1.52960  -2.54600  -1.08620    15    16    14    20
 C     2.33760  -2.48250  -0.01030    16    42     9    15
 C    -2.61760  -1.08240  -1.31450    17    18    11    23
 C    -1.77620  -0.65650  -2.28510    18    19    17    22
 C    -1.79260   0.67190  -2.27490    19    18    26    41
 C     1.72690  -1.38650  -1.82970    20    15    37    21
 C     0.63710  -0.72860  -2.45690    21    20    22    40
 C    -0.62950  -1.38760  -2.32060    22    18    12    21
 C    -3.22780  -0.00020  -0.67200    23    24    17    26
 C    -3.24460  -0.01410   0.70830    24    23    25    31
 C    -2.65420  -1.10090   1.35020    25    28    13    24
 C    -2.65010   1.10280  -1.31400    26    19    29    23
 C    -1.80220   0.66490   2.27720    27    28    31     4
 C    -1.79450  -0.66640   2.30540    28    27    25     3
 C    -2.05430   2.17560  -0.68760    29    26    30    34
 C    -2.07110   2.17400   0.70980    30    31    29    33
 C    -2.67360   1.10450   1.33160    31    27    30    24
 C     0.24590   2.91520   0.69340    32    33    10    36
 C    -0.84760   2.43660   1.36270    33    32    30     4
 C    -0.83910   2.42280  -1.36800    34    36    29    41
 C     1.53030   2.53970  -1.07880    35    46    36    39
 C     0.26270   2.91940  -0.71460    36    35    34    32
 C     2.76040  -0.68900  -1.16590    37    38    42    20
 C     2.75490   0.67940  -1.16380    38    37    43    39
 C     1.72100   1.38260  -1.83250    39    35    40    38
 C     0.63030   0.72990  -2.45830    40    39    41    21
 C    -0.63590   1.38580  -2.31780    41    19    34    40
 C     3.06290  -1.37540   0.01430    42    16    45    37
 C     3.05440   1.38610   0.00790    43    46    38    44
 C     2.77120   0.67710   1.18680    44    45    43     5
 C     2.77610  -0.68550   1.19290    45    44    42     8
 C     2.34090   2.48830  -0.00370    46    43    10    35
