    46
C46-C1-23                                                                       
 C    -3.13470   0.19750   1.34600     1    32     2     4
 C    -3.04310  -1.10710   0.88750     2     3     1    20
 C    -1.94200  -1.82080   1.27580     3    10     2     7
 C    -2.01940   0.79220   1.92630     4     1     6    34
 C     0.34640   0.64980   2.41340     5     6     9    14
 C    -0.91240   0.04750   2.38740     6     5     7     4
 C    -0.89790  -1.33120   2.08820     7     3     6    16
 C     1.82570   1.88980   1.36700     8    44     9    39
 C     0.51710   1.90040   1.76280     9     8    36     5
 C    -1.28970  -2.55550   0.33160    10    11     3    18
 C    -0.00280  -2.67340   0.64770    11    10    13    16
 C     2.05290  -2.20600  -0.35030    12    13    24    17
 C     0.76510  -2.61810  -0.46500    13    11    12    21
 C     1.59210  -0.02780   2.29340    14    44    15     5
 C     1.60470  -1.38190   1.86120    15    16    14    17
 C     0.33030  -1.95300   1.76970    16    11    15     7
 C     2.59770  -1.67220   0.85710    17    46    12    15
 C    -1.44530  -2.30220  -1.01230    18    19    10    21
 C    -2.45850  -1.45190  -1.36770    19    18    30    20
 C    -3.45340  -1.05430  -0.45690    20    25    19     2
 C    -0.12700  -2.20300  -1.48160    21    18    13    22
 C     0.29550  -1.09180  -2.26880    22    23    21    29
 C     1.67300  -0.76950  -2.15630    23    24    41    22
 C     2.58940  -1.46380  -1.36400    24    43    12    23
 C    -3.84230   0.22120  -0.67970    25    32    20    26
 C    -2.89190   0.68550  -1.54300    26    25    28    30
 C    -0.99470   2.06450  -1.31250    27    28    35    31
 C    -2.30590   1.81900  -1.02570    28    27    26    33
 C    -0.70140  -0.06640  -2.41590    29    30    31    22
 C    -2.05440  -0.29770  -2.05960    30    26    19    29
 C    -0.20650   1.24290  -2.12620    31    42    27    29
 C    -3.72130   0.99870   0.41250    32    25    33     1
 C    -2.82400   1.99990   0.25320    33    32    34    28
 C    -1.83640   2.02350   1.23170    34    33    36     4
 C    -0.11790   2.58530  -0.35770    35    27    37    36
 C    -0.52530   2.44480   1.00610    36    34     9    35
 C     1.19880   2.37250  -0.77340    37    39    35    42
 C     3.32070   1.35690  -0.14200    38    40    39    45
 C     2.26130   2.20670   0.10170    39     8    38    37
 C     3.27260   0.58130  -1.27760    40    43    38    41
 C     2.12500   0.56870  -2.05850    41    42    40    23
 C     1.12820   1.50460  -1.88770    42    41    31    37
 C     3.54520  -0.68120  -0.86970    43    24    40    46
 C     2.54670   0.83340   1.80310    44     8    45    14
 C     3.54660   0.51030   0.94390    45    44    46    38
 C     3.61210  -0.76670   0.48760    46    45    43    17
