    46
C46-C1-30                                                                       
 C     1.48820   0.74840   2.13460     1     2     4    32
 C     2.69320   0.27780   1.62070     2     5     3     1
 C     3.33490   0.96330   0.59970     3    31    12     2
 C     0.41090  -0.11360   2.40220     4    38     1     7
 C     2.75150  -1.04680   1.32200     5     2     6    11
 C     1.69490  -1.91650   1.49970     6     5    14     7
 C     0.44790  -1.50640   2.04780     7     6     4     9
 C    -0.67270  -2.74160   0.30150     8    13    45     9
 C    -0.80860  -2.03060   1.54380     9    10     8     7
 C    -2.01790  -1.31570   1.67030    10    46    37     9
 C     3.35710  -1.21490   0.08500    11    18    12     5
 C     3.54570   0.03390  -0.40370    12    11     3    17
 C     0.56590  -2.92730  -0.20630    13    14     8    41
 C     1.74180  -2.68220   0.34970    14    13    18     6
 C     1.22830   2.21290  -1.44250    15    16    28    22
 C     2.42640   1.73960  -1.15110    16    15    17    31
 C     2.77140   0.45870  -1.49420    17    16    12    20
 C     2.60860  -2.12270  -0.55620    18    11    14    19
 C     1.80250  -1.71730  -1.63130    19    41    18    20
 C     1.76460  -0.37980  -2.10360    20    19    17    27
 C    -0.63720   2.72750  -0.36240    21    22    35    24
 C     0.72070   2.85520  -0.35740    22    15    21    30
 C    -2.12100   1.31790  -1.59650    23    24    25    29
 C    -0.95800   2.01080  -1.54770    24    23    28    21
 C    -3.09180   1.42050  -0.61780    25    40    23    34
 C    -0.78930  -0.61070  -2.31030    26    42    29    27
 C     0.43240   0.17750  -2.42060    27    28    26    20
 C     0.24040   1.54710  -2.08460    28    15    24    27
 C    -2.05400  -0.02350  -2.01860    29    43    23    26
 C     1.59580   2.65650   0.68800    30    22    31    32
 C     2.73590   2.08780   0.14220    31     3    16    30
 C     0.93830   1.97380   1.70890    32    30    33     1
 C    -0.45920   1.87310   1.77870    33    32    38    35
 C    -2.61420   1.79320   0.64760    34    35    36    25
 C    -1.36750   2.40010   0.80010    35    34    21    33
 C    -2.98310   0.68930   1.42370    36    39    37    34
 C    -1.98220   0.02780   2.09320    37    38    36    10
 C    -0.77060   0.61040   2.32770    38    37     4    33
 C    -3.73350  -0.17500   0.69520    39    40    36    46
 C    -3.77140   0.24570  -0.57200    40    39    25    43
 C     0.59270  -2.32840  -1.43120    41    42    13    19
 C    -0.64360  -1.89200  -1.73870    42    41    26    45
 C    -3.08320  -0.65650  -1.31820    43    40    44    29
 C    -2.72290  -1.73110  -0.52650    44    45    46    43
 C    -1.53810  -2.34970  -0.74380    45    44     8    42
 C    -3.07060  -1.36520   0.75610    46    39    44    10
