    46
C46-C1-87                                                                       
 C    -2.11430   1.11540  -2.02920     1    27     2     6
 C    -2.14010   1.95530  -0.94520     2     3     1     9
 C    -0.97770   2.60980  -0.63250     3     2    10     4
 C     0.20400   2.42270  -1.40330     4    13     3     5
 C     0.31990   1.32020  -2.31460     5     6     4    15
 C    -0.90760   0.67430  -2.57960     6     1     5    31
 C    -2.43020   1.32320   1.34710     7    17     9     8
 C    -1.22980   1.98890   1.67380     8    10     7    22
 C    -2.92420   1.32010   0.04450     9     7    25     2
 C    -0.56520   2.70890   0.70440    10    11     8     3
 C     0.77890   2.73230   0.70700    11    10    13    20
 C     2.39270   2.01630  -0.54330    12    13    39    16
 C     1.24600   2.67120  -0.56310    13    12    11     4
 C     1.38260  -0.88590  -2.28510    14    44    30    15
 C     1.55840   0.54570  -2.24280    15    14    16     5
 C     2.65180   0.96420  -1.38990    16    12    46    15
 C    -2.39070   0.12790   2.01070    17    18     7    23
 C    -1.22340   0.06810   2.70810    18    19    17    22
 C    -0.73120  -1.16430   2.58730    19    18    43    26
 C     1.60380   1.99510   1.55100    20    39    11    21
 C     0.99060   1.03260   2.39200    21    20    22    42
 C    -0.43350   1.16550   2.52400    22    18     8    21
 C    -2.62900  -1.10380   1.40690    23    26    24    17
 C    -3.02590  -1.10090   0.08740    24    23    25    28
 C    -3.34360   0.11510  -0.52940    25    27     9    24
 C    -1.55370  -1.87380   1.77370    26    19    33    23
 C    -2.89490   0.05450  -1.78050    27    29    25     1
 C    -2.24780  -1.83780  -0.86540    28    29    34    24
 C    -2.21730  -1.05840  -2.02260    29    27    31    28
 C     0.10050  -1.45980  -2.33200    30    31    14    32
 C    -1.01260  -0.73480  -2.60460    31    30    29     6
 C     0.03460  -2.45910  -1.32620    32    35    34    30
 C    -0.76840  -2.59500   0.91560    33    26    34    36
 C    -1.09220  -2.57070  -0.47160    34    32    28    33
 C     1.30970  -2.51970  -0.83980    35    44    32    38
 C     0.57120  -2.41920   1.37090    36    38    43    33
 C     2.68700  -1.63350   0.58360    37    38    45    41
 C     1.61550  -2.47950   0.49670    38    36    37    35
 C     2.67980   1.67060   0.74990    39    40    12    20
 C     3.23020   0.46300   0.69790    40    39    46    41
 C     2.66400  -0.54920   1.46340    41    40    37    42
 C     1.54420  -0.33550   2.32450    42    41    43    21
 C     0.58420  -1.39740   2.35760    43    19    36    42
 C     2.17600  -1.69830  -1.49580    44    45    35    14
 C     3.13120  -1.24090  -0.66140    45    46    44    37
 C     3.39610   0.05790  -0.61670    46    45    40    16
