    46
C46-C1-100                                                                      
 C     2.57680   1.31290  -1.38350     1     2    29     4
 C     2.27910   2.10300  -0.29420     2     3    16     1
 C     1.03820   2.66010  -0.20960     3     2     6    17
 C     1.54570   0.89330  -2.21550     4    10     1     5
 C     0.25460   1.43350  -2.19200     5     4     6    14
 C     0.08240   2.48730  -1.23980     6     8     3     5
 C    -2.22830   2.03060  -0.97710     7     8    44    15
 C    -1.11580   2.67930  -0.66740     8     7     6    21
 C     0.69750  -1.32030  -2.20970     9    10    13    32
 C     1.74720  -0.45980  -2.26590    10     9    27     4
 C    -1.17220  -2.60130  -0.76970    11    33    37    12
 C    -1.62780  -1.71840  -1.74350    12    45    11    13
 C    -0.64620  -0.89420  -2.36480    13     9    12    14
 C    -0.90620   0.55410  -2.38620    14    15     5    13
 C    -2.17560   0.95390  -1.83520    15     7    46    14
 C     2.83510   1.47670   0.79620    16     2    22    19
 C     0.30600   2.63380   1.00720    17    21    18     3
 C     0.73290   1.73810   2.01660    18    19    17    20
 C     2.02130   1.19260   1.89060    19    24    16    18
 C    -0.32760   0.84900   2.43050    20    25    39    18
 C    -1.01650   2.73100   0.68210    21     8    17    38
 C     3.53080   0.36980   0.34590    22    29    23    16
 C     3.05650  -0.64530   1.13240    23    24    22    30
 C     2.21400  -0.15960   2.07970    24    26    23    19
 C    -0.07640  -0.53480   2.55800    25    26    35    20
 C     1.19590  -1.02780   2.30850    26    24    25    31
 C     2.81910  -0.85280  -1.51670    27    29    10    28
 C     2.37560  -1.92370  -0.76540    28    27    32    30
 C     3.39350   0.26520  -1.00020    29    22    27     1
 C     2.48660  -1.81840   0.63820    30    23    31    28
 C     1.36640  -2.11700   1.43700    31    34    26    30
 C     1.12110  -2.30380  -1.26880    32    33    28     9
 C     0.13170  -2.80530  -0.46090    33    11    32    34
 C     0.21440  -2.70030   0.93940    34    31    36    33
 C    -1.22200  -1.22250   2.15840    35    25    36    41
 C    -1.08220  -2.38550   1.37860    36    37    34    35
 C    -1.95700  -2.49790   0.33530    37    42    11    36
 C    -2.07580   2.03540   1.21230    38    21    44    39
 C    -1.68390   0.98540   2.04310    39    38    41    20
 C    -3.19970  -0.53710   0.85130    40    42    43    41
 C    -2.25190  -0.29860   1.87540    41    35    39    40
 C    -2.95880  -1.64530   0.05510    42    37    45    40
 C    -3.46270   0.51370  -0.02490    43    44    40    46
 C    -2.93810   1.73530   0.15940    44    43     7    38
 C    -2.81200  -1.22820  -1.24480    45    46    42    12
 C    -3.08630   0.06520  -1.29230    46    45    15    43
