    46
C46-C1-16                                                                       
 C     2.34600   2.13070   0.36720     1     4     2    31
 C     2.93970   1.09260   1.03500     2     1     3     6
 C     3.66690   0.13660   0.32070     3     5     2    20
 C     1.12290   2.57280   0.79490     4    33     1    16
 C     3.52640  -1.05560   0.96430     5     8     7     3
 C     2.12260   0.38200   1.96350     6     7    17     2
 C     2.49790  -0.92650   1.83050     7     5     6    13
 C     3.15090  -1.97740   0.07490     8     5    19     9
 C     1.95540  -2.50930   0.43730     9     8    29    13
 C    -2.19180  -1.81380   0.96910    10    14    30    11
 C    -0.83950  -2.20480   0.90560    11    10    12    28
 C     0.14290  -1.59110   1.78330    12    13    11    15
 C     1.49590  -1.84100   1.57370    13     7    12     9
 C    -2.57930  -0.72810   1.71720    14    43    18    10
 C    -0.22760  -0.27490   2.29880    15    18    17    12
 C     0.31880   1.99210   1.73950    16     4    44    17
 C     0.78760   0.75590   2.24800    17     6    16    15
 C    -1.57840   0.09680   2.16570    18    14    15    46
 C     2.92130  -1.37640  -1.10590    19     8    22    20
 C     3.30290  -0.04230  -1.03390    20    21    19     3
 C     2.48550   0.88970  -1.64480    21    31    20    25
 C     1.66280  -1.71360  -1.58110    22    19    24    29
 C    -0.53870  -1.01360  -2.21000    23    24    27    34
 C     0.83250  -0.79930  -2.24400    24    23    22    25
 C     1.26500   0.54080  -2.28160    25    24    21    36
 C    -2.41520  -1.68870  -1.22450    26    37    27    30
 C    -1.12150  -2.03500  -1.42230    27    26    28    23
 C    -0.30970  -2.56250  -0.40940    28    29    27    11
 C     1.05600  -2.54900  -0.59160    29     9    28    22
 C    -3.12260  -1.79510  -0.07380    30    26    42    10
 C     2.18780   2.06990  -1.01100    31    32    21     1
 C     0.94880   2.48780  -1.35160    32    33    31    36
 C     0.30640   2.88840  -0.24440    33    32    41     4
 C    -1.50760   0.01800  -2.25080    34    37    35    23
 C    -1.08210   1.33190  -1.99350    35    34    36    40
 C     0.30330   1.57490  -2.13090    36    32    35    25
 C    -2.66140  -0.46490  -1.73580    37    38    26    34
 C    -3.52530   0.15210  -0.90440    38    37    42    39
 C    -2.98330   1.31810  -0.36110    39    38    45    40
 C    -1.82730   1.96130  -0.89200    40    41    39    35
 C    -0.98530   2.62030   0.04340    41    33    44    40
 C    -3.97580  -0.71610   0.07070    42    43    38    30
 C    -3.67040  -0.07540   1.20420    43    42    45    14
 C    -1.01780   2.19650   1.39300    44    46    16    41
 C    -3.16370   1.17270   1.03250    45    43    46    39
 C    -2.02270   1.37420   1.76870    46    44    45    18
