    46
C46-C2-113                                                                      
 C     0.14590   3.09670   0.62750     1     4     2    20
 C    -0.84940   2.49430   1.33670     2     1     7     3
 C    -0.58530   1.28660   2.07710     3     2     9     6
 C     1.39500   2.74450   0.74500     4     1     5    32
 C     1.80860   1.73680   1.57530     5     4    41     6
 C     0.82440   0.87090   2.18540     6     5    44     3
 C    -1.88930   2.55270   0.44700     7    11     2    19
 C    -1.25800  -1.07070   2.06230     8    12    15     9
 C    -1.64610   0.29340   2.01210     9     8    10     3
 C    -2.82500   0.52430   1.19850    10    11    14     9
 C    -2.79470   1.61410   0.37500    11     7    10    17
 C    -1.97350  -2.05220   1.37310    12    13    46     8
 C    -2.90630  -1.71860   0.46640    13    14    12    30
 C    -3.34340  -0.47340   0.38610    14    13    16    10
 C     0.09510  -1.47220   2.09420    15     8    44    45
 C    -3.20080  -0.04450  -0.91470    16    17    14    21
 C    -2.90770   1.23910  -0.94130    17    16    11    18
 C    -1.84200   1.79870  -1.61200    18    17    19    24
 C    -1.41970   2.84080  -0.81550    19    20     7    18
 C    -0.16140   3.19150  -0.71010    20    19    26     1
 C    -2.39200  -0.95670  -1.55680    21    16    30    23
 C    -0.09860  -1.42480  -2.06590    22    33    23    28
 C    -1.16520  -0.49820  -2.15710    23    22    21    24
 C    -0.82940   0.92770  -2.17560    24    18    23    25
 C     0.58760   1.34930  -2.06620    25    26    34    24
 C     0.87660   2.59370  -1.37650    26    20    32    25
 C     1.05180  -2.83530  -0.79880    27    36    28    40
 C    -0.19300  -2.64080  -1.31960    28    27    29    22
 C    -1.29110  -2.87290  -0.54350    29    30    28    46
 C    -2.38090  -2.09230  -0.74070    30    29    13    21
 C     2.84200   1.66140  -0.38980    31    32    35    41
 C     1.94250   2.60720  -0.50450    32    31     4    26
 C     1.24710  -1.02440  -2.04020    33    36    22    34
 C     1.64010   0.33760  -1.99460    34    33    35    25
 C     2.83710   0.55620  -1.19610    35    31    38    34
 C     1.95210  -2.00610  -1.35160    36    37    27    33
 C     2.89460  -1.70530  -0.45720    37    38    36    39
 C     3.33290  -0.45990  -0.38300    38    37    42    35
 C     2.39570  -2.10380   0.76080    39    40    37    43
 C     1.29330  -2.88870   0.58290    40    39    45    27
 C     2.90150   1.21710   0.91740    41    42     5    31
 C     3.19020  -0.06620   0.92600    42    41    38    43
 C     2.40740  -0.98440   1.58840    43    42    39    44
 C     1.17310  -0.54910   2.18650    44    15    43     6
 C     0.17950  -2.69680   1.35330    45    46    40    15
 C    -1.06230  -2.89470   0.84090    46    12    45    29
