    46
C46-C2-104                                                                      
 C     0.80020   2.67570  -0.45630     1     2     3    35
 C     2.04090   2.15700  -0.61620     2     1    27     8
 C    -0.15510   2.39960  -1.39660     3     4     1     9
 C    -1.45170   2.36270  -1.01890     4     3    44    36
 C     3.26490   0.38580  -0.90530     5     6    29     8
 C     3.10280  -0.94480  -0.97790     6     5     7    20
 C     2.12740  -1.45060  -1.75150     7     6    13    11
 C     2.35850   1.20920  -1.58580     8     2     5    10
 C     0.04670   1.35260  -2.33110     9    10     3    16
 C     1.29510   0.69420  -2.38950    10     9    11     8
 C     1.19690  -0.71750  -2.46160    11     7    18    10
 C     0.16390  -2.39780  -1.40360    12    13    14    18
 C     1.45930  -2.36900  -1.01730    13    12     7    23
 C    -0.78500  -2.66400  -0.45860    14    15    12    24
 C    -2.02540  -2.14200  -0.62040    15    40    14    19
 C    -1.21780   0.71860  -2.43990    16    44     9    17
 C    -1.31000  -0.70460  -2.38490    17    18    16    19
 C    -0.05890  -1.36060  -2.34800    18    17    11    12
 C    -2.38970  -1.20680  -1.58750    19    15    46    17
 C     2.94300  -1.45260   0.28750    20     6    21    23
 C     3.05100  -0.39630   1.17910    21    20    22    29
 C     2.04870  -0.29060   2.13920    22    21    30    26
 C     1.88970  -2.35830   0.30660    23    20    13    25
 C    -0.45340  -2.60700   0.92250    24    14    41    25
 C     0.90220  -2.33760   1.30790    25    23    26    24
 C     1.04010  -1.29100   2.26080    26    32    25    22
 C     2.60940   1.85960   0.57950    27    29     2    28
 C     1.62120   2.02480   1.52180    28    27    30    35
 C     3.34340   0.74010   0.42030    29    27     5    21
 C     1.38560   0.94770   2.36350    30    31    28    22
 C     0.10440   0.65410   2.68570    31    32    30    33
 C    -0.10410  -0.66990   2.70440    32    31    42    26
 C    -1.03260   1.29770   2.25250    33    31    34    37
 C    -0.87640   2.33980   1.30020    34    36    33    35
 C     0.47310   2.61970   0.92360    35     1    28    34
 C    -1.87030   2.32430   0.30170    36     4    39    34
 C    -2.03830   0.29570   2.14400    37    38    33    42
 C    -3.01760   0.37790   1.15880    38    39    43    37
 C    -2.92480   1.42260   0.25890    39    38    45    36
 C    -2.57880  -1.83760   0.57110    40    15    43    41
 C    -1.60300  -2.01260   1.52240    41    40    42    24
 C    -1.38780  -0.95150   2.38130    42    32    41    37
 C    -3.33310  -0.73060   0.38560    43    40    46    38
 C    -2.16040   1.46830  -1.75130    44    45     4    16
 C    -3.16550   0.94880  -1.01970    45    46    44    39
 C    -3.32990  -0.38020  -0.95090    46    45    43    19
