    46
C46-C1-50                                                                       
 C    -2.22450   1.73930  -1.43000     1    29     2     6
 C    -2.88040   0.53870  -1.31780     2     1     3    19
 C    -2.26600  -0.56030  -1.88590     3     7     2     4
 C    -0.94170  -0.44670  -2.40280     4     9     3     5
 C    -0.19420   0.77220  -2.41810     5     6     4    16
 C    -0.91140   1.85910  -1.86910     6     1    32     5
 C    -2.33710  -1.77410  -1.25970     7    10    17     3
 C     1.04140  -1.67980  -1.84750     8     9    13    22
 C    -0.29290  -1.64550  -2.08220     9     8    10     4
 C    -1.14210  -2.39170  -1.32820    10     7     9    24
 C     3.62080   0.21720  -0.59650    11    12    14    44
 C     2.97060  -0.74510  -1.29210    12    11    39    13
 C     1.85650  -0.57220  -2.08270    13    12     8    16
 C     2.94470   1.39560  -0.62280    14    11    46    15
 C     1.85250   1.69440  -1.41640    15    14    31    16
 C     1.23320   0.70510  -2.24460    16    13    15     5
 C    -2.83130  -1.90620  -0.00220    17     7    20    18
 C    -3.26260  -0.76540   0.66820    18    26    17    19
 C    -3.40220   0.45890   0.01280    19    25    18     2
 C    -1.84030  -2.57030   0.69010    20    21    17    24
 C    -1.60260  -1.81210   1.76740    21    20    26    43
 C     1.52520  -2.35610  -0.69560    22    39     8    23
 C     0.58190  -2.73230   0.29940    23    24    22    42
 C    -0.75710  -2.91490  -0.09960    24    20    10    23
 C    -2.93390   1.63550   0.59930    25    29    19    28
 C    -2.43550  -0.75230   1.78270    26    21    27    18
 C    -1.72730   0.33860   2.20200    27    26    28    36
 C    -1.97650   1.55680   1.62770    28    27    25    34
 C    -2.37790   2.44700  -0.29480    29    30    25     1
 C    -1.18890   2.92120   0.06070    30    29    32    34
 C     1.03060   2.53140  -0.65500    31    32    15    33
 C    -0.27690   2.70830  -0.94000    32    31    30     6
 C     1.47180   2.39590   0.68600    33    46    31    35
 C    -0.87040   2.36640   1.30490    34    30    28    35
 C     0.46100   2.02250   1.62340    35    34    33    38
 C    -0.40420  -0.07580   2.45520    36    38    27    43
 C     1.98280   0.12040   2.07620    37    45    38    41
 C     0.72470   0.74640   2.27480    38    36    37    35
 C     2.71120  -1.76150  -0.40940    39    22    40    12
 C     3.09110  -1.35440   0.83260    40    39    44    41
 C     2.01820  -1.26430   1.69800    41    40    42    37
 C     0.82210  -1.99680   1.55390    42    43    41    23
 C    -0.33520  -1.46420   2.14590    43    21    42    36
 C     3.73440  -0.16030   0.71490    44    45    40    11
 C     3.06010   0.75200   1.45640    45    46    44    37
 C     2.67750   1.78080   0.66370    46    33    45    14
