    46
C46-C1-3                                                                        
 C    -3.09240  -0.71830  -1.53310     1     2    31     6
 C    -3.32840  -1.49220  -0.43850     2     1    27     4
 C     0.13300  -2.51710   0.21150     3    12     5    18
 C    -2.22250  -2.08580   0.12080     4     2     5    16
 C    -1.00250  -2.28240  -0.54400     5     3     4    10
 C    -1.79860  -0.60720  -2.01830     6     1    10    14
 C     2.21900   0.76410  -1.85600     7    15    25     8
 C     0.89550   0.33870  -2.14060     8     7    13     9
 C     0.61090  -1.08680  -2.00230     9    11    10     8
 C    -0.73730  -1.46570  -1.72800    10     6     9     5
 C     1.68940  -1.78480  -1.42910    11    26    12     9
 C     1.38850  -2.43550  -0.26050    12     3    23    11
 C    -0.21020   1.22100  -1.88110    13    14     8    33
 C    -1.51450   0.77530  -2.02430    14    30    13     6
 C     2.42620   1.90210  -1.08950    15    32    46     7
 C    -2.13400  -1.53890   1.43230    16    17    19     4
 C    -3.16320  -0.60570   1.45400    17    27    22    16
 C     0.24360  -2.00960   1.53080    18    19    24     3
 C    -0.87170  -1.33030   1.99740    19    18    16    20
 C    -0.55570  -0.00330   2.34530    20    44    21    19
 C    -1.48000   0.97360   1.96680    21    22    35    20
 C    -2.76770   0.70960   1.58310    22    21    17    29
 C     2.34300  -2.13920   0.65110    23    40    12    24
 C     1.59830  -1.62340   1.67850    24    23    43    18
 C     3.31120  -0.04020  -1.54060    25    26    45     7
 C     2.94750  -1.29310  -1.21450    26    25    11    40
 C    -4.03930  -0.68580   0.41240    27    17    28     2
 C    -4.23060   0.55920  -0.11250    28    31    27    29
 C    -3.36900   1.40810   0.54870    29    28    22    34
 C    -2.64490   1.35470  -1.48920    30    31    14    34
 C    -3.67180   0.50580  -1.35120    31    30    28     1
 C     1.31740   2.36290  -0.43670    32    15    33    39
 C    -0.00730   2.23770  -0.85880    33    32    36    13
 C    -2.41420   2.00880  -0.28920    34    30    36    29
 C    -0.68530   1.93790   1.36570    35    37    21    36
 C    -1.10310   2.33680   0.06580    36    34    35    33
 C     0.63730   1.74230   1.67480    37    39    35    44
 C     2.91660   1.60420   0.89340    38    46    39    42
 C     1.66870   2.16490   0.90540    39    37    38    32
 C     3.39490  -1.52560   0.06690    40    23    41    26
 C     3.91750  -0.33920   0.48840    41    40    45    42
 C     3.05370   0.30790   1.41800    42    38    41    43
 C     1.91270  -0.29220   2.04580    43    44    24    42
 C     0.75260   0.47610   2.27110    44    20    37    43
 C     4.12320   0.52590  -0.57720    45    46    25    41
 C     3.54250   1.68640  -0.31010    46    45    38    15
