    46
C46-C1-4                                                                        
 C    -2.87540  -0.99520   1.44670     1     2     6    38
 C    -3.06560   0.32110   1.63810     2     1    35     5
 C    -0.83910   2.46100   0.34900     3    11     4    18
 C    -2.03330   2.07580   0.91360     4     3    17     5
 C    -1.91700   1.05390   1.86900     5     2     4     8
 C    -1.64040  -1.56980   1.58810     6     1    12     7
 C    -0.48710  -0.90420   2.05880     7     6    13     8
 C    -0.63030   0.54010   2.20890     8    10     5     7
 C     1.83070   0.73730   1.99390     9    10    25    14
 C     0.54920   1.28780   1.94230    10     9     8    11
 C     0.39730   2.25890   0.91310    11     3    23    10
 C    -1.55080  -2.42810   0.51920    12    44    37     6
 C     0.80330  -1.42250   1.70670    13    14     7    45
 C     1.96930  -0.66350   1.91070    14    46    13     9
 C    -2.86160   1.46980  -1.11490    15    27    16    17
 C    -1.61870   1.61980  -1.66900    16    18    15    33
 C    -3.18650   1.82780   0.16790    17    35    15     4
 C    -0.62150   2.29700  -1.02490    18    16    19     3
 C     0.71560   2.07890  -1.22800    19    18    23    20
 C     1.20380   0.99910  -2.00800    20    21    19    32
 C     2.53180   0.61500  -1.74240    21    34    24    20
 C     2.67550   1.85130   0.16340    22    23    24    25
 C     1.41250   2.30850  -0.03780    23    22    11    19
 C     3.40540   1.18930  -0.80180    24    22    42    21
 C     2.97760   1.20270   1.34810    25    43    22     9
 C    -2.26960  -0.48650  -1.90240    26    28    27    33
 C    -3.33110   0.19850  -1.30830    27    15    36    26
 C    -1.91780  -1.73470  -1.41690    28    26    37    29
 C    -0.56170  -2.04220  -1.34970    29    28    31    44
 C     1.78610  -1.55870  -1.48550    30    34    31    40
 C     0.48800  -1.30440  -1.91420    31    30    29    32
 C     0.15950   0.04410  -2.30110    32    33    31    20
 C    -1.21320   0.39200  -2.21070    33    16    26    32
 C     2.85940  -0.72100  -1.63830    34    41    30    21
 C    -3.90120   0.79040   0.66810    35    17     2    36
 C    -4.08430  -0.25110  -0.22350    36    38    35    27
 C    -2.61220  -2.17240  -0.29360    37    12    38    28
 C    -3.56590  -1.40940   0.30840    38    37    36     1
 C     3.20430  -1.64920   0.19460    39    46    40    41
 C     2.00930  -2.17780  -0.22190    40    39    45    30
 C     3.85900  -0.88600  -0.74040    41    34    42    39
 C     4.28290   0.29160  -0.21480    42    41    43    24
 C     3.91700   0.25270   1.09960    43    46    25    42
 C    -0.33600  -2.57020  -0.05370    44    12    45    29
 C     0.86870  -2.33290   0.56530    45    44    40    13
 C     3.21310  -0.88350   1.33120    46    43    39    14
