    46
C46-C2-9                                                                        
 C     0.80720  -2.12350   1.04940     1     2    28     5
 C     2.01280  -2.12280   0.42740     2     1    12    22
 C     0.86750   1.02530   2.06670     3     8    16     4
 C     1.51050  -0.21560   2.25790     4    13     5     3
 C     0.53030  -1.21190   2.07390     5     6     1     4
 C    -0.85500  -1.05040   2.09510     6     5    36     7
 C    -1.49150   0.19690   2.24710     7     6     9     8
 C    -0.51810   1.19560   2.03570     8     3    45     7
 C    -2.79360   0.35350   1.72850     9    37    10     7
 C    -3.10570   1.45590   0.92220    10    46    44     9
 C     3.94350  -1.09180  -0.04390    11    12    14    21
 C     3.11490  -1.47520   0.95090    12    11     2    13
 C     2.81450  -0.37110   1.74590    13    12    15     4
 C     4.30490   0.21690   0.05010    14    18    11    15
 C     3.50920   0.65910   1.09540    15    17    14    13
 C     1.46660   1.90450   1.16130    16    17    29     3
 C     2.72000   1.70410   0.66230    17    16    15    19
 C     3.83080   0.86630  -1.04370    18    20    14    19
 C     2.91040   1.81440  -0.70530    19    18    17    31
 C     3.07230  -0.00100  -1.76040    20    18    21    23
 C     3.16340  -1.22640  -1.17420    21    20    22    11
 C     1.99460  -1.90590  -0.96150    22    21     2    25
 C     1.80840   0.47580  -2.04700    23    20    31    24
 C     0.63660  -0.30780  -2.15250    24    23    33    25
 C     0.74010  -1.64310  -1.56270    25    27    22    24
 C    -1.71530  -1.69180  -1.41330    26    27    38    34
 C    -0.46250  -2.12130  -0.98990    27    26    25    28
 C    -0.38990  -2.33900   0.41520    28     1    36    27
 C     0.39150   2.35020   0.40090    29    45    16    30
 C     0.46060   2.14130  -1.00890    30    31    32    29
 C     1.72070   1.73920  -1.42880    31    30    19    23
 C    -0.74420   1.63200  -1.56060    32    30    41    33
 C    -0.65070   0.30440  -2.17020    33    34    24    32
 C    -1.83350  -0.46170  -2.08750    34    43    26    33
 C    -2.70890  -1.70220   0.67370    35    36    38    37
 C    -1.46080  -1.91280   1.17940    36    35    28     6
 C    -3.52180  -0.66290   1.10000    37    39    35     9
 C    -2.90760  -1.77950  -0.69310    38    40    35    26
 C    -4.31200  -0.22880   0.05300    39    46    40    37
 C    -3.83950  -0.86520  -1.05800    40    38    39    43
 C    -1.99690   1.89100  -0.93990    41    42    44    32
 C    -3.17590   1.21950  -1.19960    42    43    46    41
 C    -3.10520   0.01330  -1.80640    43    42    40    34
 C    -2.00620   2.13530   0.44730    44    45    10    41
 C    -0.79870   2.14320   1.04850    45    44    29     8
 C    -3.93910   1.07670  -0.07400    46    10    39    42
