    46
C46-Cs-38                                                                       
 C    -3.29680  -0.31990  -1.05750     1     5    25     2
 C    -2.23820  -0.98580  -1.71000     2     9     3     1
 C    -1.10820  -0.32310  -2.22980     3     2     4     8
 C    -1.13010   1.10000  -2.11820     4    29    24     3
 C    -3.66040  -1.09440  -0.00410     5     6     1    10
 C    -2.94390  -2.20460   0.01480     6     5    13     9
 C     1.35370  -0.17840  -2.24940     7    42    28     8
 C     0.18190  -0.98160  -2.19880     8     7     3    45
 C    -2.09260  -2.19570  -1.04330     9     6    46     2
 C    -3.25100  -0.33570   1.05640    10     5    11    14
 C    -3.04380   0.96820   0.68280    11    10    12    25
 C    -2.07760   1.71300   1.33110    12    15    11    21
 C    -2.09240  -2.18300   1.05960    13     6    39    14
 C    -2.23280  -0.99950   1.76220    14    13    20    10
 C    -1.41670   2.70260   0.65220    15    23    18    12
 C     1.30050   1.18780   2.04720    16    17    22    34
 C     0.08180   1.78530   1.97290    17    16    18    21
 C    -0.12240   2.76320   1.04340    18    15    17    26
 C     0.18990  -0.98520   2.22740    19    22    20    41
 C    -1.10350  -0.34350   2.27810    20    14    21    19
 C    -1.10890   1.07030   2.13660    21    17    12    20
 C     1.37180  -0.19200   2.28320    22    38    16    19
 C    -1.44270   2.73310  -0.69960    23    15    27    24
 C    -2.14030   1.76750  -1.37510    24    23    25     4
 C    -3.09550   1.00260  -0.74360    25     1    24    11
 C     0.76970   2.90940  -0.00430    26    18    27    35
 C    -0.13080   2.77770  -1.06460    27    29    23    26
 C     1.29350   1.19810  -2.03590    28    29     7    32
 C     0.07920   1.79670  -1.98190    29    28    27     4
 C     3.77430  -0.06090   0.01010    30    33    31    36
 C     3.17610   0.43020  -1.11830    31    42    30    32
 C     2.36060   1.54280  -1.16800    32    31    28    35
 C     3.19600   0.43610   1.14260    33    30    38    34
 C     2.37250   1.54450   1.18560    34    33    16    35
 C     2.02160   2.28180   0.01140    35    26    34    32
 C     3.49850  -1.41830   0.00210    36    37    43    30
 C     2.73100  -1.72050   1.06910    37    38    36    40
 C     2.57050  -0.59790   1.78870    38    37    22    33
 C    -0.82360  -2.55870   0.69490    39    13    41    46
 C     1.55780  -2.34710   0.69030    40    37    41    44
 C     0.33070  -2.15840   1.35790    41    39    40    19
 C     2.55180  -0.59880  -1.75820    42    43     7    31
 C     2.72980  -1.74510  -1.07310    43    42    36    44
 C     1.56020  -2.38650  -0.74130    44    43    45    40
 C     0.32360  -2.19720  -1.38900    45    46    44     8
 C    -0.82530  -2.59760  -0.73360    46     9    45    39
