    46
C46-C1-101                                                                      
 C     3.12830  -0.64180   0.99670     1    13     3     2
 C     2.68390   0.56650   1.51820     2     1     6     4
 C     3.42190  -0.85370  -0.32530     3    27     1    16
 C     2.60480   1.66020   0.62900     4    28     5     2
 C     1.43750   2.44970   0.64320     5     8    31     4
 C     1.59560   0.28570   2.35310     6     7     2    12
 C     0.54890   1.17540   2.44900     7    14     6     8
 C     0.43910   2.28900   1.60500     8     5     9     7
 C    -0.91840   2.44870   1.30240     9    41    11     8
 C    -2.41560   1.98100  -0.46000    10    46    11    44
 C    -1.30410   2.66420  -0.01400    11    10     9    30
 C     1.28690  -1.09400   2.26680    12    13     6    20
 C     2.23220  -1.59090   1.40050    13     1    15    12
 C    -0.72110   0.68720   2.59430    14    41     7    19
 C     1.89460  -2.37810   0.32480    15    17    16    13
 C     2.56520  -1.84280  -0.74560    16    15     3    21
 C     0.59490  -2.76340   0.21270    17    15    24    18
 C    -0.34930  -2.49980   1.24240    18    26    20    17
 C    -1.09900  -0.62920   2.49140    19    14    20    38
 C    -0.05420  -1.56200   2.26320    20    18    19    12
 C     1.81160  -1.39360  -1.83240    21    22    16    25
 C     2.29810  -0.12630  -2.04350    22    21    36    27
 C    -1.39530  -2.53920  -0.68680    23    32    24    26
 C    -0.08680  -2.58560  -1.01330    24    23    17    25
 C     0.44750  -1.69640  -2.00500    25    21    24    34
 C    -1.58600  -2.46710   0.65080    26    23    18    39
 C     3.29470   0.21250  -1.14910    27     3    28    22
 C     2.93400   1.44260  -0.70450    28    27    29     4
 C     1.89070   1.90200  -1.44200    29    28    31    36
 C    -0.32220   2.61860  -1.01020    30    31    11    37
 C     1.01390   2.62150  -0.68890    31    29    30     5
 C    -2.29940  -1.76880  -1.28190    32    23    33    40
 C    -1.87150  -0.79000  -2.14150    33    32    45    34
 C    -0.47810  -0.65380  -2.47790    34    33    35    25
 C     0.05360   0.71810  -2.52760    35    36    37    34
 C     1.42250   0.90440  -2.29740    36    22    29    35
 C    -0.81040   1.74090  -2.01280    37    46    30    35
 C    -2.35760  -0.62220   1.82510    38    39    19    42
 C    -2.64530  -1.62230   0.89770    39    26    40    38
 C    -3.17940  -1.26910  -0.33860    40    43    32    39
 C    -1.62470   1.47120   1.97190    41    14    42     9
 C    -2.68020   0.73030   1.49000    42    41    44    38
 C    -3.43310   0.02170  -0.66630    43    40    44    45
 C    -3.19870   1.04800   0.22780    44    43    10    42
 C    -2.66920   0.28040  -1.80030    45    46    33    43
 C    -2.10130   1.47170  -1.68780    46    45    37    10
