    46
C46-C2-66                                                                       
 C    -2.63200  -0.84630  -1.41870     1     2     6    33
 C    -1.53120  -1.58450  -1.80960     2     1     3    45
 C    -0.97700  -2.56710  -0.97910     3    12     4     2
 C    -1.41360  -2.62230   0.33350     4     5     3    34
 C    -0.37210  -2.58210   1.24450     5     7    14     4
 C    -2.68150   0.50170  -1.74550     6    35     1    39
 C    -0.67030  -1.66160   2.17120     7     5    15     8
 C     0.46360  -0.96400   2.49520     8     7    17     9
 C     1.53240  -1.59750   1.81260     9    10    14     8
 C     2.62420  -0.84470   1.42210    10    11     9    43
 C     2.67180   0.49530   1.75490    11    25    10    16
 C     0.37920  -2.57240  -1.24320    12    46     3    13
 C     1.41000  -2.62610  -0.32390    13    14    12    42
 C     0.98390  -2.58380   0.98560    14    13     5     9
 C    -1.91250  -1.15360   1.93910    15     7    19    34
 C     1.50450   1.14860   2.13000    16    11    17    21
 C     0.38220   0.44580   2.56760    17    16    18     8
 C    -0.88760   0.99340   2.30970    18    17    23    19
 C    -2.06170   0.21390   2.11290    19    26    15    18
 C     2.48280   2.15750   0.41840    20    24    25    21
 C     1.36900   2.24300   1.22950    21    20    22    16
 C     0.09140   2.58000   0.73910    22    21    23    31
 C    -1.03450   2.12200   1.45720    23    27    22    18
 C     2.26730   1.98780  -0.89780    24    20    41    30
 C     3.31310   1.14810   0.77770    25    11    20    44
 C    -2.90760   0.89290   1.29660    26    19    27    32
 C    -2.27160   2.02900   0.89380    27    28    23    26
 C    -2.51360   2.17280  -0.42460    28    27    35    29
 C    -1.37620   2.22270  -1.21110    29    28    31    39
 C     1.02170   2.08970  -1.44660    30    24    31    37
 C    -0.09370   2.56350  -0.72320    31    30    29    22
 C    -3.58460   0.30480   0.24470    32    35    26    33
 C    -3.18790  -0.97880  -0.10850    33    32    34     1
 C    -2.44520  -1.77660   0.77460    34    33     4    15
 C    -3.33390   1.16070  -0.77630    35     6    28    32
 C     2.08150   0.22370  -2.13260    36    41    40    37
 C     0.89060   0.98640  -2.32730    37    38    30    36
 C    -0.38610   0.44310  -2.57200    38    39    37    45
 C    -1.50870   1.14360  -2.13250    39     6    38    29
 C     1.91620  -1.14340  -1.94120    40    46    36    42
 C     2.95160   0.88470  -1.31840    41    36    24    44
 C     2.43540  -1.76620  -0.76810    42    43    13    40
 C     3.18450  -0.96510   0.11260    43    44    42    10
 C     3.60190   0.30620  -0.24860    44    25    41    43
 C    -0.45500  -0.96500  -2.49240    45    46    38     2
 C     0.67780  -1.65620  -2.17360    46    12    40    45
