    46
C46-Cs-89                                                                       
 C    -2.33430  -2.46590  -0.22240     1     4    28     2
 C    -1.71260  -2.53460   0.96000     2     1    30     8
 C    -0.22520  -2.91150  -0.63330     3     5     4     8
 C    -1.41180  -2.52100  -1.18040     4     1     3    11
 C     0.92720  -2.45470  -1.18480     5     3    20     9
 C     0.24520  -1.15630   2.30360     6    31    44     7
 C     0.67060  -2.29700   1.53680     7    21     8     6
 C    -0.37770  -2.87280   0.78560     8     2     7     3
 C     0.91190  -1.35530  -2.07890     9    14     5    10
 C    -0.32330  -0.70840  -2.38730    10    11     9    17
 C    -1.50380  -1.37470  -1.95600    11     4    12    10
 C    -2.63220  -0.67780  -1.47930    12    13    28    11
 C    -2.62190   0.68620  -1.47850    13    12    23    18
 C     2.11970  -0.68370  -1.87930    14    15    19     9
 C     2.13330   0.70600  -1.88610    15    14    43    16
 C     0.91690   1.38640  -2.07360    16    15    39    17
 C    -0.32390   0.73260  -2.38120    17    18    16    10
 C    -1.50180   1.40260  -1.95090    18    25    13    17
 C     2.86640  -1.34450  -0.90810    19    20    41    14
 C     2.04040  -2.29990  -0.41760    20    19     5    21
 C     1.94820  -2.16540   0.96440    21    22    20     7
 C     2.80830  -1.10970   1.21910    22    46    21    41
 C    -3.08490   1.35330  -0.33860    23    24    26    13
 C    -2.34180   2.45750  -0.22780    24    33    23    25
 C    -1.41480   2.56260  -1.18640    25    24    40    18
 C    -3.03110   0.67680   0.88010    26    27    23    29
 C    -3.03260  -0.70260   0.88490    27    26    28    30
 C    -3.07920  -1.36530  -0.33930    28     1    27    12
 C    -2.08170   1.39350   1.64330    29    33    32    26
 C    -2.09250  -1.41700   1.66550    30     2    31    27
 C    -1.09160  -0.70870   2.31370    31    30    32     6
 C    -1.08480   0.68490   2.30360    32    29    31    37
 C    -1.69920   2.50980   0.93910    33    24    29    34
 C    -0.37360   2.84010   0.74250    34    33    36    40
 C     1.92550   2.12990   0.90430    35    45    38    36
 C     0.65570   2.23820   1.49970    36    35    34    37
 C     0.24870   1.11030   2.28970    37    32    44    36
 C     2.07890   2.32730  -0.47010    38    43    39    35
 C     0.95110   2.52090  -1.21430    39    40    38    16
 C    -0.21200   2.96310  -0.67330    40    39    25    34
 C     3.49410  -0.67010   0.09340    41    42    19    22
 C     3.50500   0.68610   0.06900    42    41    43    45
 C     2.91680   1.37540  -0.94430    43    38    42    15
 C     1.07710  -0.01890   2.40740    44    46    37     6
 C     2.78830   1.08100   1.18790    45    46    42    35
 C     2.35840  -0.00710   1.90170    46    45    22    44
