    46
C46-C2-112                                                                      
 C     0.33380  -3.13080  -0.28980     1     2    29     4
 C     1.63230  -2.83320  -0.37710     2     1     3    18
 C     2.03470  -1.98390  -1.33800     3     2    10     7
 C    -0.62870  -2.64850  -1.15650     4     1    31     6
 C    -1.13310  -0.63190  -2.33830     5     8     6    13
 C    -0.22150  -1.67900  -2.14300     6     5     7     4
 C     1.15070  -1.33030  -2.17130     7     3     6    15
 C    -2.36420  -0.60670  -1.72180     8    46     5    32
 C     2.69980   0.13550  -1.36770     9    10    11    15
 C     2.87470  -1.08830  -0.77120    10     3     9    17
 C     2.86280   1.25650  -0.59170    11    12     9    20
 C     2.03030   2.32670  -0.78830    12    11    40    16
 C    -0.72150   0.72980  -2.43690    13    14     5    43
 C     0.65090   1.09280  -2.35440    14    16    15    13
 C     1.57250   0.02110  -2.23050    15     7    14     9
 C     0.93820   2.28830  -1.65350    16    45    12    14
 C     2.89190  -1.29430   0.61770    17    18    19    10
 C     2.06750  -2.36560   0.83360    18     2    17    23
 C     2.71750  -0.14840   1.36480    19    20    17    21
 C     2.87870   1.08970   0.79410    20    25    19    11
 C     1.57790  -0.01770   2.21210    21    26    22    19
 C     0.66410  -1.10190   2.34320    22    23    24    21
 C     0.95700  -2.31690   1.67110    23    18    29    22
 C    -0.70420  -0.72470   2.42440    24    22    35    27
 C     2.05630   2.00320   1.35350    25    20    40    26
 C     1.15640   1.34110   2.16890    26    25    34    21
 C    -1.73530  -1.51180   1.82370    27    30    28    24
 C    -1.37320  -2.54160   0.97250    28    29    27    31
 C    -0.08400  -2.93730   0.98440    29    28     1    23
 C    -2.71070  -0.63910   1.43980    30    36    27    33
 C    -1.80010  -2.44510  -0.38280    31    32     4    28
 C    -2.72870  -1.47810  -0.71330    32    31     8    33
 C    -3.31820  -0.64080   0.21640    33    30    39    32
 C    -0.22130   1.68260   2.13760    34    35    26    42
 C    -1.12260   0.63230   2.34420    35    36    34    24
 C    -2.35150   0.62420   1.73090    36    30    35    38
 C    -1.78990   2.41930   0.36530    37    38    42    44
 C    -2.73810   1.47050   0.71740    38    36    37    39
 C    -3.34680   0.66090  -0.23320    39    46    33    38
 C     1.62890   2.86600   0.40650    40    41    25    12
 C     0.33580   3.16550   0.28930    41    40    45    42
 C    -0.62080   2.64970   1.14060    42    41    37    34
 C    -1.77080   1.50460  -1.84410    43    46    44    13
 C    -1.37270   2.53430  -0.99530    44    45    43    37
 C    -0.08970   2.94180  -0.98300    45    44    41    16
 C    -2.76670   0.66230  -1.46440    46     8    43    39
