    46
C46-C1-67                                                                       
 C    -2.03250  -1.04920  -1.92230     1    12     2     8
 C    -2.49770   0.24880  -1.67450     2     1     3    11
 C    -1.70140   1.36300  -1.97990     3    26     2     6
 C     0.41940   2.77330  -0.81550     4    25    30     5
 C     0.68360   1.90350  -1.88740     5    45     4     6
 C    -0.38540   1.15320  -2.42160     6     7     3     5
 C     0.10790  -0.12600  -2.64490     7     6     8    38
 C    -0.70840  -1.22570  -2.37750     8     7    41     1
 C    -3.26390  -0.49630   0.51490     9    10    13    11
 C    -2.85860  -1.77230   0.16420    10    12    14     9
 C    -3.16620   0.52340  -0.43780    11    18     9     2
 C    -2.27680  -2.05790  -1.02090    12    10    42     1
 C    -2.62360  -0.22650   1.72420    13    15    16     9
 C    -1.96140  -2.21660   1.11190    14    15    35    10
 C    -1.81820  -1.26950   2.04000    15    14    13    23
 C    -1.97830   0.94130   2.03100    16    13    17    19
 C    -2.11820   2.01220   1.17520    17    28    16    18
 C    -2.71580   1.77670  -0.06950    18    26    11    17
 C    -0.68430   0.56680   2.50820    19    20    23    16
 C     0.46950   1.34660   2.25610    20    21    19    27
 C     1.69900   0.68520   2.17420    21    32    20    22
 C     1.77360  -0.74180   2.12200    22    34    24    21
 C    -0.60010  -0.85180   2.47910    23    15    24    19
 C     0.59000  -1.51090   2.09450    24    22    23    37
 C    -0.87820   2.93250  -0.42990    25    26    28     4
 C    -1.91820   2.31700  -1.02650    26    25    18     3
 C     0.27700   2.45740   1.39390    27    28    20    30
 C    -0.97400   2.73210   0.90940    28    25    27    17
 C     2.38990   1.92960   0.29530    29    30    32    44
 C     1.20720   2.62430   0.33040    30    29     4    27
 C     3.47340   0.10500   0.90230    31    32    34    43
 C     2.74030   1.11790   1.35510    32    31    29    21
 C     2.65320  -1.79240   0.24490    33    34    36    46
 C     2.86780  -1.02650   1.33240    34    33    31    22
 C    -0.84800  -2.78350   0.53390    35    14    42    37
 C     1.49280  -2.47490   0.03720    36    33    40    37
 C     0.45710  -2.51330   1.01850    37    35    36    24
 C     1.47310  -0.14420  -2.34050    38     7    39    45
 C     2.05570  -1.29230  -1.77290    39    46    40    38
 C     1.16850  -2.28500  -1.33350    40    41    39    36
 C    -0.15380  -2.32230  -1.69750    41    42    40     8
 C    -1.11150  -2.73440  -0.83260    42    41    12    35
 C     3.53550   0.11920  -0.45470    43    31    46    44
 C     2.82460   1.24460  -0.86860    44    43    45    29
 C     1.85100   1.13630  -1.87350    45     5    44    38
 C     3.06330  -1.09530  -0.86370    46    43    39    33
