    46
C46-C1-45                                                                       
 C     1.53570   2.08590   1.21880     1     2     9    15
 C     2.51360   1.15200   1.40170     2     1    14     3
 C     2.11090  -0.08380   1.92320     3    36     2     7
 C     1.11360  -2.40190   0.98080     4    35    38     6
 C    -1.12250  -1.85540   1.60960     5     6    11    19
 C     0.23830  -1.64980   1.82090     6     5     4     7
 C     0.72100  -0.34460   2.21340     7     3     6     8
 C    -0.25910   0.72950   2.21040     8     9     7    20
 C     0.24760   1.98480   1.73980     9    18     1     8
 C    -2.76670  -2.24650   0.20010    10    11    42    46
 C    -1.58270  -2.69530   0.59420    11    10    37     5
 C     3.07940   1.23420  -0.79180    12    13    23    14
 C     1.99830   1.99760  -1.08080    13    12    15    27
 C     3.53120   0.92320   0.47360    14    31    12     2
 C     1.37750   2.67970  -0.06350    15    16    13     1
 C     0.08750   2.99990  -0.16560    16    15    18    25
 C    -1.83000   2.49150   0.74360    17    18    21    39
 C    -0.57310   2.76920   0.99370    18    17    16     9
 C    -2.10850  -0.86350   1.76150    19     5    42    20
 C    -1.68650   0.47480   1.98530    20    19    21     8
 C    -2.51120   1.44150   1.29000    21    17    44    20
 C     1.71600   0.01760  -2.06710    22    23    27    24
 C     2.97580   0.05360  -1.46800    23    32    12    22
 C     0.89560  -1.13390  -2.02670    24    22    29    33
 C    -0.75330   2.57270  -1.18860    25    39    16    26
 C    -0.26940   1.48800  -1.98110    26    27    25    28
 C     1.12200   1.27840  -1.93850    27    22    26    13
 C    -1.15440   0.34320  -2.15950    28    41    26    29
 C    -0.53560  -0.99370  -2.10960    29    30    24    28
 C    -1.34580  -1.99950  -1.48320    30    46    37    29
 C     3.84570  -0.39120   0.46610    31    14    36    32
 C     3.53530  -0.95830  -0.75020    32    34    23    31
 C     1.47520  -2.15630  -1.19250    33    34    38    24
 C     2.67910  -1.97890  -0.54800    34    32    35    33
 C     2.40230  -2.05150   0.79120    35    36     4    34
 C     2.99990  -0.99960   1.36530    36    35    31     3
 C    -0.72620  -2.75810  -0.47090    37    38    11    30
 C     0.58880  -2.72450  -0.29110    38    37    33     4
 C    -1.98940   2.47070  -0.61300    39    40    17    25
 C    -2.86550   1.51930  -0.85200    40    39    44    41
 C    -2.51340   0.45570  -1.66560    41    45    40    28
 C    -3.21060  -1.20750   0.94600    42    10    43    19
 C    -3.70980  -0.26450   0.09990    43    44    42    45
 C    -3.41970   1.01750   0.31130    44    43    40    21
 C    -3.21140  -0.61140  -1.15220    45    46    41    43
 C    -2.64630  -1.80950  -1.07740    46    45    10    30
