    46
C46-Cs-65                                                                       
 C     2.33310   0.25800   1.84000     1     2     3    36
 C     2.37540   1.56870   1.40620     2    33     1     8
 C     1.13300  -0.20730   2.35430     3     1     5     6
 C     1.45090  -2.31110   1.26930     4    44     5    35
 C     0.69960  -1.51270   2.14680     5     3     4    13
 C    -0.00790   0.59900   2.42740     6     3    10     7
 C     0.00200   1.88730   1.81710     7     8     9     6
 C     1.19590   2.27210   1.22520     8     2     7    16
 C    -1.19630   2.26160   1.22230     9     7    12    14
 C    -1.14400  -0.21560   2.37290    10    11    13     6
 C    -2.33010   0.25660   1.84610    11    10    12    42
 C    -2.38450   1.56170   1.39600    12    24    11     9
 C    -0.71400  -1.52290   2.15890    13    10    46     5
 C    -1.21320   2.70700  -0.13110    14    19    15     9
 C     0.00200   2.63480  -0.84890    15    14    16    22
 C     1.22190   2.70210  -0.13350    16    17    15     8
 C     2.43800   2.23510  -0.58620    17    33    18    16
 C     2.36420   1.31760  -1.57760    18    17    26    23
 C    -2.43340   2.23760  -0.58210    19    20    24    14
 C    -2.35170   1.31460  -1.56740    20    19    21    40
 C    -1.18610   0.98370  -2.19110    21    20    22    29
 C     0.00900   1.69660  -1.97930    22    23    21    15
 C     1.19910   0.98570  -2.20530    23    18    22    31
 C    -3.21440   1.64650   0.35100    24    12    19    43
 C     2.37240  -0.85740  -1.65750    25    26    27    31
 C     3.10020   0.22030  -1.23990    26    18    25    34
 C     2.23860  -1.92650  -0.78050    27    28    25    35
 C     1.09690  -2.66120  -0.83740    28    44    27    32
 C    -1.20630  -0.42530  -2.32060    29    30    21    37
 C     0.00160  -1.15400  -2.33940    30    32    31    29
 C     1.20440  -0.42280  -2.34010    31    30    23    25
 C    -0.00730  -2.35840  -1.61990    32    39    28    30
 C     3.20520   1.63930   0.35420    33     2    17    34
 C     3.61990   0.38450   0.02780    34    33    26    36
 C     2.55620  -1.73860   0.59670    35    36     4    27
 C     3.13100  -0.52160   0.96580    36    34    35     1
 C    -2.38190  -0.86940  -1.64990    37    40    38    29
 C    -2.23960  -1.93730  -0.77710    38    39    37    41
 C    -1.10000  -2.68220  -0.83640    39    45    38    32
 C    -3.09670   0.21980  -1.24020    40    20    37    43
 C    -2.53670  -1.73820   0.60610    41    42    46    38
 C    -3.12280  -0.51060   0.95750    42    43    41    11
 C    -3.62450   0.38890   0.02260    43    24    40    42
 C     0.67140  -3.02740   0.39570    44    45    28     4
 C    -0.68140  -3.04190   0.40530    45    44    39    46
 C    -1.44950  -2.33530   1.27940    46    45    13    41
