    46
C46-C1-62                                                                       
 C    -0.06390  -2.77440   0.84840     1     3     9    24
 C    -2.27590  -2.01080   1.10270     2     5     3    22
 C    -1.33180  -2.69910   0.38520     3     1     2     8
 C    -3.49960  -0.26040   0.54000     4     5     6    29
 C    -3.22560  -1.55840   0.27520     5     2     7     4
 C    -3.32350   0.41940  -0.64000     6    45    10     4
 C    -2.74740  -1.69290  -0.98290     7    10     5     8
 C    -1.55890  -2.37740  -0.98470     8     7     3    11
 C     0.98410  -2.91010   0.00110     9    13     1    12
 C    -2.77110  -0.46630  -1.52920    10     7    19     6
 C    -0.42080  -1.97130  -1.74350    11    12     8    20
 C     0.82770  -2.41550  -1.29730    12    21     9    11
 C     2.15290  -2.45820   0.49680    13     9    16    14
 C     1.76100  -1.71090   1.61350    14    15    24    13
 C     2.33230  -0.45290   1.76720    15    14    18    25
 C     2.91320  -1.88660  -0.47100    16    17    13    21
 C     3.49540  -0.68890  -0.28930    17    16    18    37
 C     3.28600   0.01630   0.86150    18    33    17    15
 C    -1.67480   0.09200  -2.12600    19    10    38    20
 C    -0.45000  -0.61720  -2.33180    20    19    41    11
 C     2.00320  -1.75160  -1.50790    21    12    42    16
 C    -1.84060  -0.97890   1.92990    22     2    29    23
 C    -0.47330  -0.86640   2.30470    23    24    22    26
 C     0.39640  -1.89520   1.85320    24    14     1    23
 C     1.49190   0.61960   2.11910    25    15    30    26
 C     0.09500   0.45160   2.41000    26    27    25    23
 C    -0.75080   1.53250   2.04060    27    32    28    26
 C    -2.05550   1.37190   1.55770    28    29    27    44
 C    -2.64490   0.12650   1.57640    29    28     4    22
 C     1.98170   1.75780   1.42650    30    31    33    25
 C     1.08990   2.68360   0.97440    31    30    32    36
 C    -0.22340   2.60090   1.35150    32    43    31    27
 C     2.97240   1.29890   0.58580    33    18    30    34
 C     2.79160   1.43440  -0.79390    34    35    37    33
 C     1.71340   2.15790  -1.23900    35    34    36    40
 C     1.01250   2.98500  -0.38380    36    46    35    31
 C     2.99560   0.16040  -1.26620    37    34    17    42
 C    -1.68190   1.43820  -1.72270    38    39    19    45
 C    -0.50260   2.15110  -1.69900    39    38    46    40
 C     0.71120   1.52910  -2.02950    40    39    35    41
 C     0.79210   0.14000  -2.36940    41    42    40    20
 C     2.00510  -0.47930  -2.00990    42    21    37    41
 C    -1.08910   2.99770   0.37810    43    46    32    44
 C    -2.22840   2.25200   0.44720    44    43    45    28
 C    -2.67820   1.61520  -0.71310    45     6    44    38
 C    -0.29300   3.09220  -0.71360    46    36    43    39
