    46
C46-C2v-39                                                                      
 C     1.57100   2.46440   1.04920     1    31     2     4
 C     1.89260   1.37510   1.82170     2     1     3    12
 C     0.83680   0.68040   2.38230     3     2    13     7
 C     0.26020   2.73440   0.68070     4     1     6    33
 C    -2.04520   2.03070   0.67860     5    20     6     9
 C    -0.82660   2.16980   1.35230     6     4     5     7
 C    -0.48940   1.09980   2.23500     7    16     3     6
 C    -3.03390   1.13620  -1.06070     8    45     9    38
 C    -2.07280   2.08900  -0.74270     9     8    35     5
 C     2.93540  -0.68740   1.20180    10    12    21    11
 C     1.88480  -1.39520   1.83000    11    14    13    10
 C     2.95820   0.70100   1.19060    12    10    25     2
 C     0.82780  -0.70860   2.39590    13    11     3    17
 C     1.58220  -2.48650   1.04900    14    22    11    19
 C    -2.57670  -0.00590   1.75640    15    16    20    43
 C    -1.32590  -0.01530   2.30520    16    15     7    17
 C    -0.49430  -1.13820   2.25880    17    13    16    18
 C    -0.83960  -2.21670   1.38220    18    19    44    17
 C     0.25970  -2.75130   0.70230    19    14    18    39
 C    -3.01110   1.09270   1.02310    20    45     5    15
 C     3.15070  -1.39030   0.00940    21    22    23    10
 C     2.37970  -2.48590  -0.01780    22    14    30    21
 C     2.91290  -0.68300  -1.17260    23    24    21    26
 C     2.92670   0.70310  -1.15920    24    23    25    27
 C     3.17670   1.41540   0.01070    25    31    24    12
 C     1.88170  -1.40370  -1.81520    26    30    29    23
 C     1.88020   1.41060  -1.80350    27    32    28    24
 C     0.83370   0.69370  -2.35840    28    27    29    34
 C     0.82850  -0.69640  -2.36520    29    26    28    42
 C     1.57870  -2.53440  -1.08140    30    22    26    39
 C     2.37920   2.49330  -0.01840    31    32     1    25
 C     1.57610   2.54910  -1.08270    32    31    27    33
 C     0.25410   2.80790  -0.74550    33    32    35     4
 C    -0.49010   1.13530  -2.23310    34    28    36    35
 C    -0.84560   2.24440  -1.40320    35    33     9    34
 C    -1.32160   0.00730  -2.28020    36    38    42    34
 C    -3.02220  -1.09980  -1.02190    37    46    38    40
 C    -2.57220   0.00390  -1.73030    38    36    37     8
 C     0.25780  -2.78570  -0.72690    39    30    41    19
 C    -2.05430  -2.04340  -0.68920    40    37    41    44
 C    -0.83990  -2.20840  -1.37350    41    39    40    42
 C    -0.49380  -1.11980  -2.23090    42    29    36    41
 C    -3.04290  -1.12420   1.06760    43    46    44    15
 C    -2.07560  -2.05930   0.73380    44    43    18    40
 C    -3.77260   0.66870  -0.01010    45    46    20     8
 C    -3.78010  -0.66410   0.01250    46    45    37    43
