    46
C46-Cs-7                                                                        
 C    -1.77300  -1.06610  -1.95190     1    33     2     4
 C    -2.36850   0.17180  -1.93920     2     1     3    12
 C    -3.43950   0.45140  -1.08370     3     7     2    22
 C    -0.38880  -1.22090  -2.11650     4     1     5    37
 C     0.48250  -0.13550  -2.31370     5     6     4    11
 C     1.83300  -0.34740  -2.06670     6    13     5    36
 C    -3.31730   1.73310  -0.65260     7    14     3     8
 C    -2.09760   2.15100  -1.08750     8     7    12    19
 C     2.10060   1.70850  -1.12480     9    13    20    10
 C     0.73780   1.96220  -1.19420    10     9    18    11
 C    -0.10090   1.15400  -2.05920    11    12     5    10
 C    -1.48890   1.26980  -1.94150    12     8    11     2
 C     2.72140   0.65680  -1.77690    13    46     6     9
 C    -3.33700   1.72160   0.67690    14     7    21    15
 C    -2.10570   2.14810   1.07780    15    14    31    19
 C     2.09990   1.70900   1.13340    16    32    20    17
 C     0.73430   1.96430   1.19740    17    16    18    30
 C     0.05920   2.41560  -0.00130    18    19    10    17
 C    -1.31610   2.50850  -0.00370    19    18     8    15
 C     2.89310   1.85700   0.00270    20     9    45    16
 C    -3.46420   0.45050   1.12280    21    14    24    22
 C    -3.65430  -0.40920   0.00960    22    23     3    21
 C    -3.01220  -1.63340  -0.01420    23    22    33    26
 C    -2.38790   0.17150   1.97290    24    25    21    31
 C    -1.78320  -1.05560   1.96250    25    24    26    27
 C    -2.17880  -1.98820   1.04170    26    34    25    23
 C    -0.39930  -1.20820   2.11630    27    25    29    39
 C     1.82970  -0.33950   2.06610    28    32    29    43
 C     0.47660  -0.12830   2.31820    29    28    27    30
 C    -0.11040   1.15990   2.05710    30    31    29    17
 C    -1.50200   1.27170   1.94300    31    15    30    24
 C     2.72490   0.66490   1.77870    32    44    28    16
 C    -2.19300  -2.02710  -1.06570    33    35     1    23
 C    -1.08430  -2.67590   0.64660    34    35    26    39
 C    -1.08580  -2.71590  -0.69530    35    34    33    37
 C     2.29700  -1.45440  -1.31630    36    41    38     6
 C     0.05180  -2.32490  -1.33740    37    35    38     4
 C     1.31620  -2.26180  -0.73100    38    36    37    40
 C     0.04500  -2.28790   1.31080    39    34    40    27
 C     1.31920  -2.24540   0.73050    40    43    39    38
 C     3.43150  -0.97970  -0.67640    41    42    46    36
 C     3.44430  -0.96860   0.69360    42    44    41    43
 C     2.30360  -1.44040   1.31050    43    42    40    28
 C     3.83170   0.28460   1.08820    44    32    45    42
 C     4.02770   1.05690  -0.01360    45    46    44    20
 C     3.82710   0.27320  -1.09110    46    45    13    41
