    46
C46-Cs-40                                                                       
 C     3.32430  -0.81360   0.00780     1    35     2     3
 C     3.28940   0.01650  -1.10830     2     8    25     1
 C     2.44120  -1.91260   0.00900     3     1     5     6
 C     1.55390  -1.27220   2.17290     4    34     5    43
 C     1.61520  -2.19160   1.13400     5    10     4     3
 C     1.62250  -2.16120  -1.13040     6     9     7     3
 C     1.55630  -1.25120  -2.17280     7     8     6    20
 C     2.39800  -0.19000  -2.11120     8    11     7     2
 C     0.43650  -2.62580  -0.65420     9    10     6    21
 C     0.42710  -2.66400   0.68830    10     9     5    46
 C     1.67490   0.93170  -2.30100    11     8    12    14
 C     2.09080   1.87590  -1.39060    12    11    25    13
 C     1.02750   2.46270  -0.71210    13    12    17    26
 C     0.36740   0.61930  -2.60220    14    11    16    20
 C    -1.97230   0.85550  -2.02310    15    33    16    19
 C    -0.69570   1.41740  -2.15660    16    15    14    17
 C    -0.30550   2.32730  -1.12140    17    29    13    16
 C    -3.12140  -0.81040  -1.10410    18    38    19    42
 C    -2.09920  -0.56540  -2.02080    19    18    22    15
 C     0.26360  -0.79770  -2.55840    20    22    14     7
 C    -0.81960  -2.33390  -1.10570    21     9    40    22
 C    -0.95570  -1.36590  -2.12890    22    19    20    21
 C     3.14900   1.32020   0.67030    23    25    35    24
 C     2.06480   1.84430   1.36870    24    27    26    23
 C     3.15270   1.32950  -0.68360    25    23     2    12
 C     1.01400   2.45830   0.69680    26    24    30    13
 C     1.66980   0.89190   2.27450    27    34    24    32
 C    -2.42500   1.95440  -0.00990    28    29    36    33
 C    -1.14490   2.43100  -0.00890    29    28    30    17
 C    -0.31290   2.32530   1.10810    30    26    29    31
 C    -0.70120   1.40190   2.13620    31    32    37    30
 C     0.36050   0.60540   2.57650    32    27    31    43
 C    -2.92950   1.28760  -1.11570    33    38    28    15
 C     2.42360  -0.21560   2.11360    34    27    35     4
 C     3.31410   0.01500   1.11650    35    34     1    23
 C    -2.91720   1.27930   1.09560    36    39    37    28
 C    -1.97380   0.83060   2.00580    37    36    31    44
 C    -3.74390   0.31260  -0.66240    38    39    33    18
 C    -3.75510   0.29060   0.67930    39    38    41    36
 C    -1.67990  -2.32740   0.00920    40    42    21    46
 C    -3.17290  -0.84040   1.13660    41    39    42    44
 C    -2.82770  -1.59290   0.01570    42    40    41    18
 C     0.25480  -0.80860   2.55320    43    32    45     4
 C    -2.13200  -0.58640   2.03670    44    41    45    37
 C    -0.97730  -1.38420   2.14340    45    44    46    43
 C    -0.83020  -2.37110   1.13860    46    10    40    45
