    46
C46-C1-98                                                                       
 C     0.04930   1.73990   2.02430     1     2    31    20
 C     1.13980   0.94630   2.29060     2     1     6    27
 C     1.92040  -2.06470   1.11410     3     5     7     4
 C     2.77530  -1.75590   0.08100     4     3    28    10
 C     0.69320  -2.59110   0.87210     5     3     8    12
 C     0.89040  -0.42330   2.48520     6     7     2     9
 C     2.03090  -1.02000   1.99030     7    26     3     6
 C    -0.43350  -2.18690   1.62700     8    19     5     9
 C    -0.41500  -0.97030   2.38260     9     6     8    21
 C     2.26640  -1.69570  -1.21600    10    11     4    13
 C     2.73810  -0.47370  -1.65700    11    16    23    10
 C     0.23920  -2.76920  -0.45740    12    17     5    13
 C     0.96340  -2.14760  -1.50600    13    10    12    14
 C     0.12140  -1.28150  -2.28560    14    15    42    13
 C     0.57900   0.01610  -2.56790    15    16    14    33
 C     1.86010   0.40120  -2.25250    16    25    15    11
 C    -1.11820  -2.72070  -0.40020    17    19    12    41
 C    -2.63030  -1.71760   0.80150    18    19    40    22
 C    -1.52240  -2.44500   0.86510    19    18     8    17
 C    -1.27930   1.28600   2.09930    20    44     1    21
 C    -1.58120  -0.10980   2.25240    21    20    22     9
 C    -2.74660  -0.53830   1.50490    22    18    46    21
 C     3.50200   0.15560  -0.69990    23    28    24    11
 C     2.97270   1.42110  -0.62480    24    25    23    29
 C     2.03980   1.59840  -1.60990    25    24    35    16
 C     2.96840  -0.13240   1.56140    26     7    28    27
 C     2.38480   1.11960   1.65070    27    26    29     2
 C     3.51480  -0.62630   0.40380    28    23    26     4
 C     2.40310   1.95740   0.51830    29    24    30    27
 C     1.23120   2.62090   0.14190    30    31    29    35
 C     0.12180   2.65770   0.96250    31    32    30     1
 C    -1.13170   2.72950   0.46580    32    31    44    36
 C    -0.51520   0.88380  -2.38580    33    15    37    34
 C    -0.33810   2.13640  -1.69740    34    36    35    33
 C     0.97730   2.37610  -1.23750    35    25    34    30
 C    -1.41960   2.46240  -0.86380    36    39    32    34
 C    -1.67950   0.10750  -2.22370    37    38    33    42
 C    -2.76800   0.55550  -1.46680    38    39    43    37
 C    -2.59090   1.73880  -0.78740    39    38    36    45
 C    -2.99290  -1.57480  -0.51500    40    43    18    41
 C    -1.96450  -2.09140  -1.28680    41    17    40    42
 C    -1.27900  -1.24680  -2.15210    42    41    14    37
 C    -3.43060  -0.29730  -0.59380    43    40    46    38
 C    -2.03950   2.07260   1.24160    44    45    32    20
 C    -3.04940   1.58170   0.50520    45    46    44    39
 C    -3.45800   0.31730   0.64880    46    45    43    22
