    46
C46-C1-63                                                                       
 C     2.44240   0.44510  -1.70140     1     2     3    35
 C     2.70480  -0.85640  -1.38120     2    26     1     5
 C     2.75080   1.44580  -0.80460     3     4     1     8
 C     1.87960   2.49400  -0.65750     4     3    44    36
 C     3.07840  -1.28770  -0.10140     5     6     7     2
 C     2.32070  -2.42160   0.06390     6    11     5    25
 C     3.05830  -0.27410   0.86500     7     8     5     9
 C     3.04190   1.04930   0.50030     8    16     7     3
 C     2.10360  -0.33570   1.92070     9    10    17     7
 C     1.30990  -1.45990   2.00640    10    11     9    20
 C     1.48200  -2.50120   1.12410    11    13     6    10
 C    -0.69390  -2.31820   1.46530    12    14    13    20
 C     0.26780  -2.91680   0.72530    13    11    12    24
 C    -1.91770  -2.12890   0.92810    14    12    15    22
 C    -2.68160  -1.07670   1.36470    15    32    14    21
 C     2.28480   1.79890   1.34710    16    44     8    17
 C     1.55300   0.93580   2.15050    17    16     9    18
 C     0.13440   1.11520   2.34980    18    19    17    46
 C    -0.70720  -0.04920   2.42280    19    21    20    18
 C    -0.06630  -1.31220   2.24050    20    10    12    19
 C    -2.05360   0.01470   1.96920    21    15    42    19
 C    -2.09200  -2.21290  -0.48380    22    27    14    23
 C    -0.91420  -2.37720  -1.27970    23    24    22    30
 C     0.22310  -2.96970  -0.66550    24    25    13    23
 C     1.52030  -2.67680  -1.02990    25    26    24     6
 C     1.74180  -1.66720  -1.88160    26    25     2    31
 C    -3.06650  -1.27510  -0.70820    27    28    32    22
 C    -2.72380  -0.25660  -1.52710    28    27    40    29
 C    -1.53440  -0.19240  -2.19750    29    28    30    33
 C    -0.61900  -1.26800  -2.20550    30    29    31    23
 C     0.73420  -0.90530  -2.40450    31    26    30    35
 C    -3.53160  -0.65980   0.40940    32    15    43    27
 C    -1.11420   1.15820  -2.11490    33    34    29    37
 C     0.25320   1.50660  -2.15530    34    36    33    35
 C     1.16890   0.44810  -2.34460    35    34    31     1
 C     0.65860   2.56120  -1.31170    36     4    39    34
 C    -2.05430   1.81200  -1.26690    37    40    38    33
 C    -1.51470   2.59470  -0.26300    38    39    37    41
 C    -0.23520   3.01800  -0.35380    39    38    45    36
 C    -3.04430   0.93480  -0.94810    40    37    28    43
 C    -1.69610   2.16260   1.08420    41    42    46    38
 C    -2.60130   1.14110   1.31130    42    41    43    21
 C    -3.48240   0.68860   0.33510    43    32    40    42
 C     1.67880   2.78900   0.66950    44    45    16     4
 C     0.38040   3.02160   0.85650    45    44    39    46
 C    -0.42800   2.26530   1.68120    46    45    41    18
