    46
C46-C1-81                                                                       
 C    -0.35520  -2.91990   0.91970     1     2    26     3
 C    -0.66720  -3.07490  -0.39110     2     7     1     4
 C     0.85140  -2.45750   1.35400     3     1     6    31
 C     0.23160  -2.61980  -1.30720     4     2     5    10
 C     1.53500  -2.39470  -0.91410     5    13     4     6
 C     1.91400  -2.32660   0.45630     6     3    45     5
 C    -1.87970  -2.49370  -0.56290     7     2     8    14
 C    -1.76690  -1.61960  -1.63290     8     9     7    10
 C    -2.51490  -0.47510  -1.63090     9     8    21    15
 C    -0.43850  -1.62860  -2.07030    10     8     4    11
 C     0.22430  -0.42460  -2.46690    11    12    10    20
 C     1.61510  -0.41220  -2.24540    12    39    13    11
 C     2.24670  -1.40650  -1.50180    13     5    41    12
 C    -2.40790  -2.01010   0.62740    14    16    26     7
 C    -3.39410  -0.22100  -0.55510    15    18    16     9
 C    -3.08620  -0.83300   0.65690    16    14    15    25
 C    -2.55960   1.67550  -1.25070    17    19    18    21
 C    -3.41080   1.09780  -0.36710    18    15    24    17
 C    -1.78150   2.50730  -0.53890    19    17    22    27
 C    -0.51340   0.82220  -2.32590    20    21    11    23
 C    -1.90760   0.73750  -2.01330    21    17     9    20
 C    -0.46320   2.68510  -0.74960    22    19    36    23
 C     0.23940   1.95930  -1.76770    23    40    22    20
 C    -2.98980   1.40680   0.88420    24    27    18    25
 C    -2.65280   0.22070   1.52190    25    24    16    28
 C    -1.35520  -2.19300   1.48810    26     1    14    29
 C    -2.03890   2.35350   0.79580    27    24    33    19
 C    -1.41140   0.09880   2.24930    28    29    25    34
 C    -0.80500  -1.18310   2.25090    29    26    31    28
 C     1.46270  -0.33470   2.28300    30    31    32    44
 C     0.58410  -1.38910   2.22640    31    30    29     3
 C     0.90550   0.95750   2.29870    32    35    30    34
 C    -0.84440   2.35310   1.43470    33    27    36    34
 C    -0.48950   1.22880   2.24450    34    32    33    28
 C     1.84490   1.70680   1.62620    35    43    38    32
 C     0.13010   2.83890   0.52480    36    38    22    33
 C     2.25930   2.28300  -0.40210    37    38    46    40
 C     1.44960   2.58960   0.65260    38    36    37    35
 C     2.31620   0.70710  -1.88960    39    40    12    42
 C     1.62480   1.84080  -1.57300    40    39    37    23
 C     3.18940  -0.86270  -0.68470    41    13    42    45
 C     3.33880   0.45880  -0.99910    42    46    41    39
 C     2.93300   0.99710   1.22390    43    35    46    44
 C     2.68460  -0.32600   1.56760    44    43    45    30
 C     2.88120  -1.32360   0.59510    45    41     6    44
 C     3.27100   1.40560  -0.03860    46    42    43    37
