    46
C46-C2-20                                                                       
 C    -3.44350  -0.05900  -1.20250     1     2     6    36
 C    -3.22260   1.17980  -0.73120     2     1     4    25
 C     0.22180   1.93870  -1.63500     3    12     5    15
 C    -2.10890   1.91390  -1.03140     4     2    17     5
 C    -1.05220   1.39390  -1.83030     5     3     4    10
 C    -2.33140  -0.67030  -1.77230     6    14     1    10
 C     1.19810  -2.30080  -0.57010     7    22     8    46
 C     0.07950  -1.93910  -1.28820     8    13     7     9
 C     0.14870  -0.72400  -2.07760     9    11    10     8
 C    -1.11580  -0.01510  -2.13110    10     6     5     9
 C     1.44830  -0.08830  -2.07990    11    12    23     9
 C     1.44260   1.31520  -1.90060    12    20     3    11
 C    -1.12140  -2.32000  -0.73480    13    14     8    42
 C    -2.33990  -1.90120  -1.14940    14    13    35     6
 C     0.47700   2.74490  -0.49300    15    18    16     3
 C    -0.47980   2.72860   0.46650    16    17    15    31
 C    -1.76700   2.52230   0.16400    17    16    24     4
 C     1.75900   2.51620  -0.17280    18    15    20    29
 C     3.47030   1.17790  -0.61960    19    20    21    37
 C     2.45860   1.88100  -1.14850    20    19    18    12
 C     3.73970  -0.11460  -0.94490    21    19    43    23
 C     2.45740  -1.87670  -0.82360    22     7    44    23
 C     2.61950  -0.72890  -1.56040    23    22    21    11
 C    -2.45270   1.87030   1.13220    24    25    17    32
 C    -3.48270   1.17360   0.62230    25    24    26     2
 C    -3.73120  -0.12290   0.91110    26    25    36    27
 C    -2.62760  -0.76670   1.54800    27    28    26    34
 C    -2.49180  -1.97340   0.87360    28    35    42    27
 C     2.11460   1.90310   1.02230    29    37    18    30
 C     1.04590   1.36090   1.78070    30    31    29    40
 C    -0.22640   1.90270   1.58790    31    32    30    16
 C    -1.43580   1.27420   1.86250    32    24    31    34
 C    -0.14810  -0.78790   2.04810    33    34    41    40
 C    -1.44010  -0.12810   2.04300    34    32    27    33
 C    -3.32140  -1.96330  -0.20930    35    36    14    28
 C    -4.03430  -0.85380  -0.22110    36    35    26     1
 C     3.23150   1.17450   0.73330    37    38    29    19
 C     3.44940  -0.07770   1.15720    38    37    43    39
 C     2.34560  -0.71130   1.75120    39    45    38    40
 C     1.11770  -0.05350   2.07910    40    39    30    33
 C    -0.07850  -2.08250   1.38000    41    46    42    33
 C    -1.21800  -2.42260   0.67660    42    28    41    13
 C     4.03480  -0.86270   0.18640    43    44    38    21
 C     3.30390  -1.97040   0.23870    44    43    22    45
 C     2.36510  -2.00510   1.22480    45    46    44    39
 C     1.14050  -2.44920   0.84450    46    45    41     7
