    46
C46-Cs-2                                                                        
 C    -1.28250  -2.34690  -0.01510     1    26     4     2
 C     0.09530  -2.30940  -0.02470     2     1    24     5
 C     2.88980  -1.81880  -0.02030     3     7    25     6
 C    -2.05460  -1.95960   1.04960     4     9     1    32
 C     0.76760  -1.87500   1.18810     5     6    10     2
 C     2.13610  -1.65450   1.13330     6    11     5     3
 C     4.02280  -1.03300   0.01590     7     8    12     3
 C     3.87770  -0.28120   1.12820     8     7    11    13
 C    -1.43900  -1.18870   2.00020     9     4    44    10
 C    -0.05270  -1.07270   2.07930    10     9     5    45
 C     2.77770  -0.65070   1.84050    11     8    46     6
 C     3.85880  -0.28080  -1.10690    12     7    15    14
 C     3.56250   0.97930   0.68330    13     8    14    39
 C     3.55780   0.98990  -0.70120    14    12    19    13
 C     2.77200  -0.67980  -1.82410    15    12    25    20
 C    -0.03830  -1.10390  -2.09600    16    17    24    23
 C    -1.42580  -1.21010  -2.00220    17    26    29    16
 C     1.44570   2.12750  -0.69300    18    19    21    43
 C     2.41740   1.41130  -1.34900    19    18    14    20
 C     1.90500   0.35690  -2.12400    20    15    23    19
 C     0.12870   2.17490  -1.08930    21    18    36    22
 C    -0.38930   1.29500  -2.08710    22    30    21    23
 C     0.52730   0.21650  -2.35990    23    20    22    16
 C     0.78780  -1.93200  -1.23920    24    25     2    16
 C     2.14680  -1.71910  -1.17810    25    15    24     3
 C    -2.07280  -1.98780  -1.07260    26     1    17    28
 C    -3.43180  -0.33290  -1.38570    27    28    29    33
 C    -3.30470  -1.51090  -0.68510    28    32    27    26
 C    -2.29700  -0.15610  -2.14470    29    30    17    27
 C    -1.77350   1.09780  -2.02580    30    29    31    22
 C    -2.61180   1.66970  -1.07840    31    38    33    30
 C    -3.31000  -1.49730   0.69040    32    35    28     4
 C    -3.64270   0.83350  -0.68240    33    27    31    34
 C    -3.66380   0.82700   0.70360    34    35    33    37
 C    -3.47440  -0.33820   1.41030    35    32    34    44
 C    -0.68460   2.46940   0.01030    36    38    42    21
 C    -2.62280   1.66020   1.09240    37    38    40    34
 C    -2.02290   2.23650   0.00990    38    36    31    37
 C     2.41850   1.40990   1.34210    39    43    13    46
 C    -1.78600   1.08440   2.03940    40    44    37    41
 C    -0.39870   1.31170   2.08140    41    40    42    45
 C     0.13760   2.20170   1.10590    42    43    36    41
 C     1.44530   2.14480   0.71000    43    42    39    18
 C    -2.33230  -0.15940   2.17120    44    40     9    35
 C     0.52720   0.23210   2.36550    45    46    41    10
 C     1.90620   0.36960   2.13730    46    11    45    39
