    46
C46-C1-82                                                                       
 C    -0.25560   3.04100   0.74290     1    26     2     6
 C     1.01660   2.63420   1.05620     2     3     1    18
 C     1.20500   1.64740   1.97910     3     7     2     4
 C     0.08560   0.90460   2.44370     4     5    12     3
 C    -1.22450   1.23100   2.05180     5    15     4     6
 C    -1.36950   2.32320   1.16120     6     1     5    29
 C     2.23400   0.78850   1.84220     7     3     8    16
 C     1.83500  -0.42950   2.26950     8     9     7    12
 C     2.44680  -1.35930   1.54030     9     8    44    20
 C    -1.68750  -1.19380   1.98230    10    40    11    15
 C    -0.31980  -1.51640   2.17090    11    12    10    43
 C     0.50730  -0.43980   2.56750    12     8    11     4
 C    -3.33440  -1.02460   0.47980    13    14    46    40
 C    -3.12780   0.20430   0.94740    14    13    28    15
 C    -2.12380   0.16900   1.91090    15    14     5    10
 C     3.04290   0.66770   0.72420    16     7    20    17
 C     2.64150   1.46710  -0.39090    17    18    16    19
 C     1.71930   2.52310  -0.19020    18    25    17     2
 C     2.40450   0.67980  -1.57140    19    22    23    17
 C     3.26110  -0.71480   0.62390    20    21     9    16
 C     3.09800  -1.37030  -0.53490    21    20    22    39
 C     2.65010  -0.67300  -1.60060    22    21    30    19
 C     1.18130   0.86050  -2.27550    23    24    31    19
 C     0.38040   1.93230  -2.03100    24    23    25    34
 C     0.74900   2.89410  -1.11690    25    26    24    18
 C    -0.37790   3.31340  -0.55480    26    25     1    27
 C    -1.46620   2.68990  -1.00660    27    26    29    34
 C    -2.97510   1.08480  -0.11090    28    29    14    35
 C    -2.22660   2.20690   0.02750    29    28    27     6
 C     1.56130  -1.29210  -2.10790    30    22    36    31
 C     0.61580  -0.39420  -2.53180    31    30    23    32
 C    -0.76740  -0.65410  -2.39700    32    31    38    33
 C    -1.63600   0.47450  -2.07930    33    34    35    32
 C    -1.02550   1.75050  -1.95130    34    27    24    33
 C    -2.77970   0.22280  -1.24330    35    46    28    33
 C     1.25240  -2.37760  -1.34090    36    37    30    39
 C    -0.06380  -2.64050  -1.13430    37    36    42    38
 C    -1.09310  -1.91930  -1.79950    38    45    37    32
 C     2.16660  -2.37820  -0.31720    39    36    21    44
 C    -2.48980  -1.88170   1.09670    40    41    13    10
 C    -1.85280  -2.57810   0.13750    41    40    42    45
 C    -0.52960  -2.87740   0.18330    42    41    37    43
 C     0.31580  -2.51270   1.28140    43    44    42    11
 C     1.69980  -2.37400   0.99320    44     9    39    43
 C    -2.23100  -2.04920  -1.07300    45    46    38    41
 C    -3.11350  -1.05860  -0.85110    46    45    13    35
