    46
C46-C1-59                                                                       
 C     2.07670  -2.15730   0.66540     1     3     2    35
 C     2.70910  -1.14010   1.33990     2    32     1     8
 C     0.80970  -2.52000   1.03160     3     1     5     6
 C     0.09230  -2.56220  -1.16900     4    34     5    44
 C    -0.15120  -3.01910   0.14120     5    15     3     4
 C     0.10210  -1.70740   1.94500     6    11     7     3
 C     0.57650  -0.44560   2.35060     7     6     8    12
 C     1.94050  -0.21010   2.03870     8     2     9     7
 C     2.42520   1.03500   1.60840     9    10    18     8
 C     1.46960   2.00600   1.44680    10     9    13    19
 C    -1.20510  -1.91960   1.66640    11     6    15    23
 C    -0.39440   0.63350   2.33210    12    13     7    24
 C     0.15130   1.88430   1.90080    13    22    10    12
 C    -2.48200  -2.34710   0.00710    14    15    46    41
 C    -1.40000  -2.80980   0.64930    15    14     5    11
 C     3.10530   1.24430  -0.58440    16    17    27    18
 C     2.07070   2.09950  -0.84720    17    16    19    31
 C     3.42420   0.78390   0.66750    18    32    16     9
 C     1.37500   2.67670   0.19120    19    20    17    10
 C     0.08860   3.01940   0.01700    20    19    22    29
 C    -1.86810   2.41760   0.78310    21    22    25    36
 C    -0.62450   2.68020   1.12230    22    21    13    20
 C    -2.18950  -0.96800   1.70440    23    11    41    24
 C    -1.81130   0.37280   1.99670    24    23    25    12
 C    -2.57010   1.33810   1.23870    25    21    43    24
 C     1.84720   0.26830  -2.08770    26    27    28    31
 C     3.01880   0.13850  -1.38910    27    26    16    33
 C     1.01320  -0.82870  -2.21610    28    26    40    34
 C    -0.71070   2.71530  -1.07750    29    36    20    30
 C    -0.15660   1.74030  -1.95480    30    31    29    39
 C     1.24550   1.51340  -1.85640    31    26    30    17
 C     3.61350  -0.54400   0.53520    32    18     2    33
 C     3.38040  -1.00890  -0.72250    33    32    27    35
 C     1.32350  -2.02130  -1.52210    34     4    35    28
 C     2.44860  -2.03000  -0.69180    35    33    34     1
 C    -1.98300   2.53430  -0.57340    36    37    21    29
 C    -2.83010   1.56740  -0.91150    37    36    38    43
 C    -2.34590   0.57910  -1.75110    38    45    37    39
 C    -1.01110   0.60260  -2.25860    39    38    40    30
 C    -0.36400  -0.67520  -2.31350    40    28    44    39
 C    -3.12290  -1.33970   0.71420    41    42    14    23
 C    -3.58620  -0.35210  -0.08550    42    43    41    45
 C    -3.41240   0.94600   0.18300    43    42    37    25
 C    -0.95560  -1.83020  -1.76520    44    46    40     4
 C    -2.90020  -0.58930  -1.26650    45    46    38    42
 C    -2.23320  -1.76940  -1.22960    46    45    44    14
