    46
C46-Cs-11                                                                       
 C    -4.16850   0.00190   0.02800     1     6     2    22
 C    -3.66440   1.29470  -0.01510     2    28     8     1
 C     0.37320   2.48540  -0.00840     3     4    15    30
 C    -0.99330   2.41070  -0.01540     4     3     7    27
 C    -2.86130   0.23130   1.77840     5     6     8    10
 C    -3.66120  -0.66100   1.12780     6     9     5     1
 C    -1.61630   1.94720   1.15630     7     8     4    17
 C    -2.87560   1.41840   1.10330     8     5     7     2
 C    -2.90940  -1.69880   0.68690     9     6    21    12
 C    -1.55730   0.01960   2.21810    10     5    17    11
 C    -0.87500  -1.19830   2.01620    11    10    12    19
 C    -1.63140  -2.01000   1.11110    12    14     9    11
 C     0.40900  -2.47490   0.01510    13    14    38    20
 C    -0.91910  -2.40770  -0.00320    14    13    12    26
 C     1.17700   2.14250   1.09460    15    44     3    16
 C     0.59200   1.19570   1.96390    16    17    15    18
 C    -0.79380   1.16960   1.99810    17    16    10     7
 C     1.36990  -0.01950   2.12970    18    46    16    19
 C     0.55740  -1.22980   1.99100    19    20    11    18
 C     1.19580  -2.16580   1.12860    20    43    13    19
 C    -2.91050  -1.68680  -0.68740    21    22     9    26
 C    -3.63830  -0.61680  -1.09850    22    21    23     1
 C    -2.86150   0.27260  -1.77430    23    28    22    24
 C    -1.56890   0.03630  -2.23300    24    23    32    25
 C    -0.88810  -1.18390  -2.02230    25    24    39    26
 C    -1.63720  -1.99900  -1.11950    26    21    14    25
 C    -1.63460   1.99040  -1.20150    27    28     4    32
 C    -2.90490   1.47250  -1.14140    28    23     2    27
 C     2.43350   1.99220  -0.67430    29    33    30    44
 C     1.16680   2.14020  -1.11840    30    29     3    31
 C     0.57670   1.21550  -2.00320    31    32    30    36
 C    -0.81060   1.19830  -2.03690    32    31    24    27
 C     3.34140   1.08580  -1.07160    33    29    40    35
 C     3.32880  -1.05220  -1.04190    34    37    41    35
 C     2.72600   0.01100  -1.71140    35    34    33    36
 C     1.35010   0.00020  -2.15210    36    35    31    39
 C     2.42430  -1.95120  -0.64100    37    34    38    43
 C     1.16230  -2.09730  -1.09160    38    37    13    39
 C     0.53950  -1.20210  -1.99350    39    38    25    36
 C     4.11630   0.65730  -0.00740    40    41    33    45
 C     4.12440  -0.67870   0.02680    41    40    34    42
 C     3.38290  -1.10770   1.11650    42    43    41    46
 C     2.47860  -2.02430   0.72070    43    42    20    37
 C     2.45310   2.00640   0.67820    44    45    15    29
 C     3.34240   1.08070   1.06920    45    44    46    40
 C     2.75920  -0.00920   1.70770    46    45    42    18
