    46
C46-C2-53                                                                       
 C     3.01280  -1.66660   0.92700     1     2     5    30
 C     1.89920  -1.69850   1.66770     2     1    11    36
 C    -2.13250  -0.52170   1.93150     3    37    45     4
 C    -0.80150  -0.98500   2.10480     4     3    10    35
 C     2.67290  -2.06020  -0.30690     5     1     6     7
 C     3.08480  -1.09730  -1.15170     6     5    19    13
 C     1.36770  -2.48080  -0.29320     7     5     8    11
 C     0.45010  -2.11670  -1.29780     8     9     7    18
 C    -0.87750  -2.33160  -0.99920     9    20     8    12
 C    -0.44690  -2.16370   1.31460    10    11    12     4
 C     0.88310  -2.36820   1.04150    11     2    10     7
 C    -1.38480  -2.52290   0.32390    12    46    10     9
 C     3.78640  -0.13800  -0.40490    13    14    30     6
 C     3.32830   1.03850  -0.89130    14    13    21    15
 C     2.37580   0.81880  -1.85450    15    19    26    14
 C    -1.61110  -0.44820  -2.13730    16    20    17    42
 C    -0.27650  -0.02320  -2.34720    17    16    25    18
 C     0.81640  -0.97830  -2.13650    18    19     8    17
 C     2.14570  -0.52060  -1.99440    19    15     6    18
 C    -1.90010  -1.69480  -1.63810    20    44     9    16
 C     2.74300   1.94620  -0.06240    21    22    14    28
 C     1.64450   2.46990  -0.65810    22    24    21    26
 C    -0.63760   2.75480  -0.19300    23    34    24    27
 C     0.65460   2.74230   0.21080    24    22    23    31
 C     0.01280   1.37160  -2.07180    25    26    27    17
 C     1.33930   1.70880  -1.78630    26    15    22    25
 C    -1.01780   2.06970  -1.38160    27    43    25    23
 C     2.32360   1.59280   1.21660    28    29    21    31
 C     2.69570   0.34370   1.68730    29    28    30    36
 C     3.58440  -0.44530   0.93430    30     1    13    29
 C     1.02240   2.06530   1.39970    31    28    24    32
 C    -0.01110   1.36090   2.07660    32    33    31    35
 C    -1.32980   1.69130   1.76310    33    37    34    32
 C    -1.64930   2.47460   0.65570    34    23    40    33
 C     0.28860  -0.03180   2.35470    35    36    32     4
 C     1.62580  -0.45100   2.17300    36     2    35    29
 C    -2.37080   0.81890   1.79980    37    33     3    38
 C    -3.36140   1.05150   0.87120    38    39    40    37
 C    -3.79560  -0.13940   0.40280    39    38    41    45
 C    -2.75430   1.97260   0.06180    40    34    38    43
 C    -3.57370  -0.45420  -0.93190    41    44    39    42
 C    -2.69010   0.35660  -1.67330    42    43    41    16
 C    -2.32570   1.60520  -1.21080    43    42    40    27
 C    -3.02140  -1.68730  -0.92540    44    20    46    41
 C    -3.09420  -1.11880   1.12520    45    46     3    39
 C    -2.69560  -2.10750   0.31050    46    45    44    12
