    46
C46-C1-25                                                                       
 C     3.66160  -0.36110   0.88170     1     5    27     2
 C     2.65170  -0.89600   1.61030     2     1    10    36
 C    -1.50890  -1.56000   1.76740     3    37    45     4
 C    -0.10820  -1.45050   1.96250     4     3     9    35
 C     3.66030  -1.02170  -0.28770     5     1     6    12
 C     2.75530  -2.01810  -0.23720     6     5     8    10
 C     0.62300  -2.33970  -1.22590     7     8    22    11
 C     1.88870  -1.86790  -1.30280     8     7     6    17
 C     0.75250  -2.30980   1.14350     9    10    11     4
 C     2.09600  -1.99800   1.00130    10     2     9     6
 C     0.09220  -2.83820  -0.00560    11    46     7     9
 C     3.21180  -0.12740  -1.21760    12     5    13    17
 C     3.12090   1.12520  -0.64480    13    14    12    27
 C     2.07450   1.91290  -1.04280    14    13    18    15
 C     1.05810   1.50680  -1.94020    15    20    14    16
 C     1.00480   0.14190  -2.35230    16    17    15    23
 C     2.11640  -0.62470  -1.91690    17    12     8    16
 C     1.39030   2.63340  -0.09110    18    21    14    25
 C    -1.36450   1.68880  -1.82240    19    20    34    24
 C    -0.10930   2.20530  -1.63770    20    19    21    15
 C     0.13590   2.88220  -0.45970    21    18    32    20
 C    -0.44670  -1.74510  -1.88900    22    44     7    23
 C    -0.31910  -0.43430  -2.41710    23    22    24    16
 C    -1.50500   0.34860  -2.21090    24    19    42    23
 C     1.40010   2.22140   1.22440    25    26    18    28
 C     2.32340   1.28250   1.57620    26    25    27    36
 C     3.37620   0.95180   0.72570    27     1    26    13
 C     0.04680   2.15980   1.57800    28    25    32    29
 C    -0.48390   0.99710   2.21760    29    30    28    35
 C    -1.85370   0.78350   1.99830    30    37    33    29
 C    -2.03960   2.41450   0.32860    31    32    33    34
 C    -0.75040   2.78680   0.57800    32    31    21    28
 C    -2.67660   1.52770   1.15260    33    31    40    30
 C    -2.38900   1.94730  -0.93350    34    43    19    31
 C     0.42790  -0.13190   2.32820    35    36    29     4
 C     1.80550   0.07900   2.10050    36     2    26    35
 C    -2.34650  -0.48020   1.85270    37    30     3    38
 C    -3.42780  -0.53810   0.99600    38    40    39    37
 C    -3.13740  -1.63100   0.22940    39    38    45    41
 C    -3.57190   0.71070   0.48390    40    38    43    33
 C    -2.71850  -1.40950  -1.09210    41    44    42    39
 C    -2.71570  -0.11620  -1.60530    42    43    41    24
 C    -3.25740   0.91020  -0.84470    43    34    40    42
 C    -1.58390  -2.14440  -1.24920    44    46    41    22
 C    -2.10720  -2.36020   0.80370    45    46    39     3
 C    -1.25340  -2.81200  -0.11080    46    45    11    44
