    46
C46-C1-60                                                                       
 C    -1.95190  -2.24170  -0.52480     1     2    29     3
 C    -3.03110  -1.40870  -0.46660     2     1     5    24
 C    -0.99430  -2.06440  -1.53230     3    45     1     6
 C    -3.53970   0.69240  -0.56890     4     8     5    26
 C    -3.18020  -0.35970  -1.33640     5     4     2     7
 C    -1.03960  -0.86970  -2.28110     6     7    21     3
 C    -2.10230   0.00060  -2.11710     7     5     6    13
 C    -2.67700   1.69100  -0.83980     8     4     9    13
 C    -2.15470   2.14650   0.34100     9    10     8    16
 C    -0.89240   2.66850   0.32630    10     9    17    11
 C    -0.09280   2.70110  -0.84040    11    20    10    12
 C    -0.44720   1.81470  -1.90690    12    13    11    22
 C    -1.77580   1.34330  -1.85810    13     8     7    12
 C    -1.59130   0.78880   2.17750    14    15    16    27
 C    -0.32380   1.37230   2.23110    15    17    14    35
 C    -2.61750   1.25830   1.33840    16    26    14     9
 C    -0.00520   2.40970   1.37710    17    18    15    10
 C     1.25040   2.51280   0.90470    18    17    20    33
 C     2.24930   2.13520  -0.95020    19    20    37    23
 C     1.20630   2.76810  -0.42670    20    19    18    11
 C     0.27010  -0.43720  -2.45830    21     6    40    22
 C     0.63540   0.94840  -2.34710    22    23    21    12
 C     1.96400   1.16710  -1.89270    23    19    42    22
 C    -3.22180  -0.95290   0.81770    24    26     2    25
 C    -2.17210  -1.46490   1.55310    25    24    27    29
 C    -3.51830   0.37710   0.75480    26     4    24    16
 C    -1.37470  -0.59530   2.31360    27    28    25    14
 C    -0.01380  -0.81630   2.48680    28    31    27    35
 C    -1.45190  -2.39270   0.77310    29    30     1    25
 C    -0.10670  -2.64450   0.97310    30    29    31    44
 C     0.61280  -1.91240   1.92640    31    32    28    30
 C     1.89960  -1.81860   1.50810    32    31    43    36
 C     2.31790   1.68760   1.20500    33    18    37    34
 C     2.03940   0.52290   1.97160    34    33    36    35
 C     0.68680   0.40870   2.46110    35    28    15    34
 C     2.67550  -0.67170   1.52490    36    32    39    34
 C     3.06840   1.60170   0.01950    37    38    19    33
 C     3.52570   0.40510  -0.39160    38    37    39    42
 C     3.43960  -0.72780   0.34770    39    38    46    36
 C     1.13320  -1.45900  -1.99070    40    41    45    21
 C     2.42280  -1.17960  -1.55470    41    42    46    40
 C     2.80660   0.12840  -1.54690    42    41    23    38
 C     2.03850  -2.49030   0.32110    43    46    32    44
 C     0.78640  -2.87330  -0.08980    44    43    45    30
 C     0.32960  -2.40680  -1.33030    45     3    44    40
 C     2.91710  -1.76150  -0.39930    46    43    39    41
