    46
C46-C2-54                                                                       
 C     3.30400   0.86020  -1.00520     1    32     2     4
 C     3.36750  -0.49410  -1.12210     2     3     1    17
 C     2.36290  -1.10480  -1.77920     3     2    11     7
 C     2.14820   1.51280  -1.46310     4     1     6    34
 C    -0.16360   1.32830  -2.18130     5     6     9    12
 C     1.15080   0.87280  -2.25180     6     5     7     4
 C     1.28650  -0.52850  -2.39520     7     3    14     6
 C    -1.87190   2.07620  -0.98880     8    44     9    39
 C    -0.54340   2.28620  -1.21360     9     8    36     5
 C     0.54180  -2.26370  -1.22010    10    11    21    14
 C     1.87370  -2.07600  -0.97800    11     3    10    16
 C    -1.30930   0.51630  -2.38470    12    44     5    13
 C    -1.17550  -0.89540  -2.26930    13    14    12    15
 C     0.14460  -1.33360  -2.21250    14    13     7    10
 C    -2.17700  -1.53020  -1.47530    15    46    13    20
 C     2.50900  -2.00700   0.24120    16    11    17    18
 C     3.50570  -1.04570   0.14390    17    24     2    16
 C     1.57030  -1.97070   1.26640    18    16    19    22
 C     0.22080  -2.32750   1.09220    19    30    18    21
 C    -1.70450  -2.30890  -0.37290    20    31    21    15
 C    -0.35060  -2.58710  -0.19900    21    20    10    19
 C     1.59200  -0.88110   2.15710    22    25    23    18
 C     2.52890   0.13460   1.93260    23    24    22    26
 C     3.56330   0.02650   1.00750    24    32    17    23
 C     0.26910  -0.64630   2.51720    25    22    30    28
 C     1.92960   1.40870   1.76690    26    27    33    23
 C     0.58330   1.61410   1.98570    27    26    28    35
 C    -0.25940   0.64760   2.52220    28    42    27    25
 C    -1.92070  -1.41620   1.78320    29    30    31    41
 C    -0.57700  -1.62350   2.00010    30    29    25    19
 C    -2.53960  -1.94400   0.66730    31    43    29    20
 C     3.53690   1.17830   0.28190    32    33     1    24
 C     2.54900   1.98410   0.67120    33    32    26    34
 C     1.70480   2.33420  -0.37630    34    33    36     4
 C    -0.21450   2.34430   1.09540    35    27    37    36
 C     0.35030   2.60770  -0.19160    36    34     9    35
 C    -1.55790   1.96490   1.28220    37    39    35    42
 C    -3.46360   1.01610   0.09930    38    40    39    45
 C    -2.47930   1.97810   0.23760    39     8    38    37
 C    -3.50170  -0.02200   1.00520    40    43    38    41
 C    -2.50680  -0.14010   1.96430    41    40    42    29
 C    -1.58310   0.88160   2.18340    42    28    41    37
 C    -3.51610  -1.15060   0.23800    43    31    46    40
 C    -2.39780   1.11640  -1.79220    44    45     8    12
 C    -3.42390   0.47960  -1.18580    45    44    46    38
 C    -3.35830  -0.86770  -1.07280    46    43    45    15
