    92
C92-C1-30                                                                       
 C     1.74820   3.52730   1.56030     1     2     8    54
 C     2.69890   2.65470   1.99050     2     1     3     7
 C     3.71300   2.38250   1.05810     3     4    53     2
 C     4.39860   1.21960   1.08610     4     5     3    12
 C     4.10460   0.28620   2.01270     5     4    13     6
 C     3.04730   0.48970   2.87900     6    23     5     7
 C     2.27370   1.65170   2.92590     7     6     2    19
 C     0.47330   3.52640   2.05000     8     1    59     9
 C    -0.02700   2.56170   2.95740     9     8    18    19
 C     4.69630  -0.47970  -0.50850    10    12    26    11
 C     4.49740  -1.43570   0.46030    11    13    29    10
 C     4.67490   0.83740  -0.20580    12    10    36     4
 C     4.18100  -1.03770   1.71940    13    14    11     5
 C     3.22770  -1.70130   2.41310    14    13    15    23
 C     2.61500  -2.84510   1.92120    15    16    14    28
 C     1.36590  -3.06210   2.42320    16    15    48    24
 C    -2.19390   3.11760   1.99030    17    87    58    18
 C    -1.43550   2.34580   2.92040    18     9    17    90
 C     0.88850   1.54470   3.36870    19     9     7    21
 C    -1.10730  -0.00270   3.61350    20    90    91    21
 C     0.33280   0.23440   3.69850    21    22    19    20
 C     1.21440  -0.89130   3.55700    22    23    24    21
 C     2.52400  -0.74220   3.16500    23     6    22    14
 C     0.69800  -2.13120   3.24270    24    92    22    16
 C     2.62080  -2.64720  -2.06950    25    27    30    32
 C     4.10910  -0.89700  -1.67760    26    27    10    34
 C     3.65890  -2.16270  -1.40470    27    25    26    29
 C     2.88620  -3.29220   0.59440    28    29    15    31
 C     3.83520  -2.50290  -0.08420    29    11    27    28
 C     1.75380  -3.54010  -1.50710    30    25    45    31
 C     1.81910  -3.90180  -0.14690    31    30    49    28
 C     1.96970  -1.87090  -3.00160    32    38    25    33
 C     2.29030  -0.53960  -3.26050    33    32    42    34
 C     3.44630  -0.02400  -2.57350    34    35    26    33
 C     3.50040   1.34640  -2.24110    35    37    36    34
 C     4.12590   1.75280  -1.04860    36    12    53    35
 C     2.42230   2.12000  -2.63070    37    35    51    43
 C     0.70870  -2.37530  -3.10050    38    32    40    45
 C    -1.58120  -2.08080  -3.08040    39    64    40    46
 C    -0.36250  -1.59780  -3.50540    40    39    38    41
 C    -0.17680  -0.20240  -3.74440    41    40    42    66
 C     1.17700   0.29140  -3.62470    42    43    33    41
 C     1.31240   1.63020  -3.29820    43    68    42    37
 C    -0.61390  -3.83030  -1.68720    44    45    46    47
 C     0.58280  -3.44790  -2.20440    45    44    30    38
 C    -1.71760  -3.17640  -2.22380    46    79    44    39
 C    -0.64840  -4.25200  -0.33020    47    50    44    49
 C     0.41260  -3.78470   1.76430    48    82    16    49
 C     0.56340  -4.21170   0.43700    49    48    31    47
 C    -1.87430  -3.98150   0.30830    50    86    78    47
 C     2.00430   3.22510  -1.91140    51    55    37    52
 C     2.57640   3.54850  -0.69340    52    53    54    51
 C     3.61410   2.78160  -0.27630    53    52    36     3
 C     1.69530   4.00440   0.24260    54    57    52     1
 C     0.66680   3.44250  -2.18010    55    56    51    68
 C    -0.19200   4.05030  -1.29140    56    55    62    57
 C     0.39800   4.29440  -0.04310    57    59    54    56
 C    -1.60130   3.91770   1.04910    58    59    17    63
 C    -0.31270   4.12130   1.09820    59    58    57     8
 C    -3.22300   2.11710  -1.98790    60    69    71    61
 C    -2.03150   2.77530  -2.31410    61    60    67    62
 C    -1.56010   3.75430  -1.36390    62    56    63    61
 C    -2.27540   3.82820  -0.15120    63    72    58    62
 C    -2.66740  -1.26940  -2.90800    64    39    65    74
 C    -2.56990   0.09630  -3.12450    65    64    69    66
 C    -1.32440   0.67990  -3.52000    66    65    67    41
 C    -1.09320   2.04990  -3.12700    67    68    61    66
 C     0.23020   2.45410  -3.04640    68    43    55    67
 C    -3.48800   0.82090  -2.37520    69    60    65    76
 C    -4.54980   1.17580  -0.45600    70    71    76    73
 C    -3.92100   2.32730  -0.81760    71    72    70    60
 C    -3.39250   3.13330   0.11950    72    63    71    87
 C    -4.55910   0.79960   0.86300    73    80    88    70
 C    -3.50150  -1.86070  -1.96010    74    79    75    64
 C    -4.31110  -1.11440  -1.12370    75    76    74    81
 C    -4.34070   0.23450  -1.42140    76    70    75    69
 C    -3.66440  -2.63240   0.62220    77    78    81    85
 C    -2.97250  -3.41210  -0.28140    78    79    50    77
 C    -2.88890  -3.00800  -1.55720    79    78    46    74
 C    -4.41990  -0.50590   1.20200    80    73    81    83
 C    -4.38010  -1.51120   0.24530    81    77    80    75
 C    -0.79210  -3.41190   2.28650    82    86    48    92
 C    -3.62370  -0.53470   2.36100    83    84    89    80
 C    -2.83450  -1.59980   2.67630    84    83    85    91
 C    -2.94920  -2.69360   1.80780    85    86    77    84
 C    -1.91860  -3.54930   1.60610    86    82    85    50
 C    -3.36360   2.71990   1.43230    87    88    17    72
 C    -3.90090   1.55550   1.78960    88    87    73    89
 C    -3.24330   0.74760   2.68460    89    88    83    90
 C    -1.98730   1.07180   3.26070    90    89    18    20
 C    -1.59060  -1.35160   3.33710    91    92    84    20
 C    -0.63210  -2.34300   3.14570    92    24    82    91
