    92
C92-C1-33                                                                       
 C    -1.03280  -3.81030  -1.48450     1     6     2    56
 C    -2.02900  -3.08270  -2.06260     2     1     3     9
 C    -3.16960  -2.90380  -1.27000     3     4    55     2
 C    -3.97980  -1.83890  -1.43890     4     3     5    21
 C    -3.66920  -0.89940  -2.35720     5     4    22    10
 C     0.27420  -3.68670  -1.84210     6     1    61     7
 C     0.75880  -2.73030  -2.76460     7     6    16     8
 C    -0.22800  -1.83560  -3.31510     8     7     9    12
 C    -1.62070  -2.06930  -2.99470     9    10     2     8
 C    -2.50240  -0.99270  -3.08250    10     5    14     9
 C     1.58780  -0.15620  -3.51420    11    15    18    12
 C     0.19890  -0.48630  -3.67320    12    11     8    13
 C    -0.78150   0.60130  -3.63450    13    14    28    12
 C    -2.09520   0.29760  -3.35200    14    13    10    23
 C     1.87530   1.20450  -3.30780    15    27    86    11
 C     2.12760  -2.37000  -2.60950    16    18     7    17
 C     2.86010  -2.96840  -1.54010    17    90    60    16
 C     2.55800  -1.08050  -3.01200    18    16    92    11
 C    -4.73030  -0.15980   0.01680    19    21    32    20
 C    -4.50670   0.78430  -0.96360    20    22    24    19
 C    -4.48250  -1.46000  -0.21890    21    19    41     4
 C    -3.94430   0.40850  -2.13800    22     5    20    23
 C    -2.99390   1.17900  -2.73660    23    22    26    14
 C    -4.11490   1.95250  -0.39540    24    20    33    25
 C    -3.21720   2.84990  -1.00750    25    24    36    26
 C    -2.61500   2.42870  -2.25610    26    23    29    25
 C     0.92630   2.18520  -3.20640    27    15    88    28
 C    -0.42960   1.95750  -3.33800    28    27    13    29
 C    -1.32210   2.84760  -2.61670    29    30    26    28
 C    -0.71340   3.78500  -1.76760    30    89    35    29
 C    -3.27560   2.37480   1.73680    31    33    34    37
 C    -4.39030   0.39230   1.22720    32    33    19    39
 C    -4.11410   1.70360   0.96490    33    31    32    24
 C    -2.50650   3.37970   1.24390    34    31    51    36
 C    -1.24060   4.14330  -0.54770    35    36    30    49
 C    -2.45450   3.65770  -0.13330    36    35    34    25
 C    -2.60370   1.73330   2.75710    37    43    31    38
 C    -2.73340   0.37050   3.01960    38    37    47    39
 C    -3.71430  -0.34210   2.23570    39    40    32    38
 C    -3.52150  -1.71480   1.96570    40    42    41    39
 C    -3.93000  -2.25820   0.73250    41    21    55    40
 C    -2.39570  -2.31270   2.50410    42    53    40    48
 C    -1.44510   2.43130   2.95510    43    37    45    51
 C     0.87260   2.46840   3.06410    44    66    52    45
 C    -0.29820   1.83020   3.45240    45    43    44    46
 C    -0.30040   0.42980   3.73200    46    45    47    68
 C    -1.54930  -0.27150   3.52060    47    48    38    46
 C    -1.44900  -1.62660   3.25170    48    70    47    42
 C    -0.16070   4.38610   0.29780    49    79    50    35
 C    -0.22850   4.02660   1.62610    50    51    52    49
 C    -1.40610   3.49830   2.05600    51    50    34    43
 C     0.92070   3.53330   2.17410    52    50    82    44
 C    -1.74560  -3.37570   1.90800    53    57    42    54
 C    -2.12140  -3.83500   0.65920    54    55    56    53
 C    -3.19300  -3.23500   0.08580    55    54    41     3
 C    -1.08400  -4.20990  -0.14120    56    59    54     1
 C    -0.42970  -3.38360   2.32580    57    58    53    70
 C     0.60590  -3.91120   1.58590    58    57    64    59
 C     0.19990  -4.30840   0.30020    59    61    56    58
 C     2.26140  -3.75790  -0.59910    60    61    17    65
 C     1.01510  -4.12260  -0.76890    61    60    59     6
 C     3.22080  -1.50580   2.40830    62    73    71    63
 C     2.11230  -2.31660   2.67590    63    62    69    64
 C     1.90470  -3.42230   1.77090    64    58    65    63
 C     2.76720  -3.48430   0.65640    65    74    60    64
 C     2.05730   1.80720   2.98850    66    44    67    76
 C     2.15130   0.46180   3.29840    67    71    66    68
 C     0.97790  -0.28080   3.64600    68    67    69    46
 C     0.99710  -1.69070   3.33390    69    70    63    68
 C    -0.23950  -2.29280   3.15800    70    48    57    69
 C     3.23100  -0.15600   2.69370    71    62    67    78
 C     4.55070  -0.48100   0.95080    72    78    73    75
 C     4.07810  -1.69600   1.34730    73    74    72    62
 C     3.80700  -2.65580   0.44360    74    73    65    90
 C     4.70550  -0.21010  -0.37710    75    83    72    91
 C     2.85960   2.44990   2.03000    76    82    77    66
 C     3.83890   1.78730   1.33150    77    76    78    84
 C     4.07040   0.48980   1.76880    78    72    77    71
 C     1.02100   4.26860  -0.39580    79    89    49    81
 C     3.14310   3.09370  -0.62820    80    81    87    84
 C     2.22910   3.82890   0.16210    81    82    79    80
 C     2.12040   3.47320   1.49760    82    76    52    81
 C     4.40310   1.02510  -0.86110    83    75    85    84
 C     4.00390   2.10850  -0.05560    84    83    80    77
 C     3.84190   0.78760  -2.10010    85    86    92    83
 C     2.97110   1.64820  -2.58590    86    85    87    15
 C     2.67620   2.80530  -1.93420    87    88    86    80
 C     1.45170   3.17000  -2.39450    88    89    87    27
 C     0.64190   3.92090  -1.66640    89    88    30    79
 C     3.90130  -2.36230  -0.89610    90    91    17    74
 C     4.32250  -1.16270  -1.29790    91    90    92    75
 C     3.69370  -0.54870  -2.33790    92    91    85    18
