    92
C92-C1-70                                                                       
 C    -4.52480  -0.07340  -0.03650     1     2     5    56
 C    -4.25350  -1.42530  -0.12580     2    42     1    15
 C    -3.67150   2.56160   0.01190     3     4    11    55
 C    -3.82360   1.92700  -1.16620     4     3     7     5
 C    -4.23450   0.62690  -1.20550     5     4    13     1
 C    -0.86880   2.85750  -2.86250     6     8    92    19
 C    -2.96860   2.18260  -2.19510     7     4     8    18
 C    -1.95860   3.13340  -2.08290     8     6     7     9
 C    -1.75730   3.82500  -0.85970     9    11     8    10
 C    -0.42450   4.20500  -0.47230    10    12    91     9
 C    -2.66490   3.48120   0.15920    11    62     3     9
 C    -0.14350   4.14700   0.90710    12    87    61    10
 C    -3.62930   0.04770  -2.31750    13    14    18     5
 C    -3.30870  -1.28550  -2.38730    14    13    15    22
 C    -3.70370  -2.01570  -1.25730    15    16     2    14
 C    -3.00710  -3.10520  -0.83070    16    17    15    41
 C    -1.96780  -3.53130  -1.54330    17    16    26    23
 C    -2.83900   0.99890  -2.92050    18    13    20     7
 C    -0.73660   1.67080  -3.60520    19    38    20     6
 C    -1.68390   0.66440  -3.61180    20    19    18    21
 C    -1.26270  -0.69780  -3.71650    21    20    22    37
 C    -2.12990  -1.67640  -3.10240    22    23    14    21
 C    -1.52580  -2.85140  -2.65820    23    32    17    22
 C     0.42420  -4.16660   0.98430    24    25    47    30
 C    -0.85400  -4.21040   0.48200    25    24    26    40
 C    -0.92380  -4.13230  -0.91770    26    17    27    25
 C     0.18100  -3.94610  -1.71380    27    29    26    32
 C     2.35200  -3.12310  -1.80620    28    29    52    36
 C     1.43880  -3.93900  -1.19190    29    27    28    30
 C     1.55780  -4.07990   0.17110    30    54    29    24
 C     0.67960  -2.21210  -3.35810    31    32    36    37
 C    -0.19080  -3.11210  -2.77350    32    23    31    27
 C     3.09160   1.07220  -2.78290    33    86    80    34
 C     2.44540  -0.01660  -3.37280    34    35    33    39
 C     2.83530  -1.22920  -2.85410    35    36    34    82
 C     1.98680  -2.29160  -2.86240    36    35    28    31
 C     0.17450  -0.96620  -3.84590    37    31    39    21
 C     0.59110   1.41880  -3.74920    38    19    84    39
 C     1.11110   0.12940  -3.86720    39    38    34    37
 C    -1.88900  -3.64470   1.26260    40    41    25    43
 C    -2.99960  -3.16940   0.54300    41    42    16    40
 C    -3.79120  -2.14540   0.95430    42    45    41     2
 C    -1.56990  -2.94120   2.48310    43    44    48    40
 C    -2.40630  -1.87830   2.83430    44    45    64    43
 C    -3.51000  -1.50750   2.10300    45    42    57    44
 C     2.02920  -3.16610   2.08450    46    49    54    47
 C     0.71670  -3.54280   2.17660    47    46    24    48
 C    -0.23390  -2.84290   2.93800    48    47    43    51
 C     2.45950  -2.10840   2.76430    49    46    77    50
 C     1.58380  -1.36230   3.52150    50    65    49    51
 C     0.22800  -1.65940   3.63460    51    50    63    48
 C     3.38880  -2.51000  -1.11160    52    82    28    53
 C     3.53390  -2.63730   0.26750    53    52    54    76
 C     2.56660  -3.45310   0.86090    54    46    30    53
 C    -3.88020   1.88580   1.19230    55     3    56    60
 C    -4.30400   0.57250   1.20620    56    55    57     1
 C    -3.75100  -0.17730   2.24110    57    45    58    56
 C    -2.78850   0.30910   3.11640    58    59    64    57
 C    -2.34850   1.61360   3.08380    59    58    60    68
 C    -2.97030   2.39650   2.09880    60    62    55    59
 C    -1.05890   3.70590   1.82980    61    62    12    69
 C    -2.29570   3.40390   1.47140    62    61    60    11
 C    -0.62720  -0.53890   3.86010    63    64    51    67
 C    -1.95030  -0.73080   3.48230    64    58    63    44
 C     2.09330  -0.09230   3.55630    65    50    70    66
 C     1.29280   1.03980   3.69650    66    65    73    67
 C    -0.12040   0.82800   3.87240    67    66    68    63
 C    -1.00830   1.88720   3.45920    68    69    59    67
 C    -0.41970   2.99920   2.82550    69    74    61    68
 C     3.26690  -0.10660   2.82280    70    71    77    65
 C     3.69120   0.98170   2.19040    71    70    72    78
 C     2.97900   2.14320   2.30650    72    71    88    73
 C     1.80340   2.20910   3.05540    73    74    72    66
 C     0.91410   3.14030   2.59620    74    69    73    87
 C     4.44400  -0.33900   0.28260    75    78    81    76
 C     4.03970  -1.52080   0.98370    76    77    53    75
 C     3.47060  -1.33290   2.26310    77    70    49    76
 C     4.28540   0.89110   0.96010    78    71    83    75
 C     3.83000   2.11540  -0.97730    79    83    85    80
 C     3.96610   0.95410  -1.71000    80    79    33    81
 C     4.27550  -0.27240  -1.12780    81    82    80    75
 C     3.72130  -1.35610  -1.77470    82    52    81    35
 C     3.98240   2.07850   0.34850    83    79    78    88
 C     1.26360   2.45850  -3.15190    84    86    92    38
 C     2.87790   2.93190  -1.53960    85    86    79    90
 C     2.48780   2.28980  -2.67040    86    84    85    33
 C     1.10260   3.86630   1.40750    87    12    89    74
 C     3.17500   2.86020   1.13590    88    83    72    89
 C     2.20500   3.70560   0.60290    89    87    88    90
 C     2.00620   3.76120  -0.80030    90    85    89    91
 C     0.68740   3.97530  -1.33160    91    92    10    90
 C     0.38440   3.30750  -2.53150    92    84     6    91
