    92
C92-D3-83                                                                       
 C    -2.68700  -0.01810   3.18900     1     9     2     4
 C    -2.06690  -1.22130   3.41880     2     1     3     7
 C    -2.55650  -2.24230   2.60590     3    52     6     2
 C    -3.63960   0.18620   2.17470     4    22     5     1
 C    -4.03930  -0.80650   1.31270     5     4     6    20
 C    -3.49410  -2.05700   1.60370     6    66     3     5
 C    -0.70930  -1.22940   3.84930     7     8     2    11
 C     0.02520  -2.34960   3.42540     8    24    51     7
 C    -2.03030   1.15470   3.42750     9     1    14    10
 C    -0.69300   1.24390   3.84950    10     9    17    11
 C     0.01210   0.00230   4.05570    11    12     7    10
 C     1.43730  -0.01220   3.84590    12    13    23    11
 C     2.02390   1.19300   3.41910    13    18    25    12
 C    -2.62570   2.08140   2.60050    14    15    22     9
 C    -1.95370   3.15790   2.20210    15    14    92    16
 C    -0.66030   3.34580   2.60830    16    15    37    17
 C    -0.01030   2.41590   3.41730    17    18    16    10
 C     1.34050   2.34910   3.18790    18    13    17    36
 C    -4.01100  -1.46010  -0.97310    19    87    65    20
 C    -4.30990  -0.44740  -0.03400    20    19     5    90
 C    -3.78670   1.93570   0.45930    21    22    90    91
 C    -3.55590   1.49710   1.77700    22     4    14    21
 C     2.10560  -1.19200   3.41360    23    24    27    12
 C     1.37040  -2.32850   3.18930    24     8    23    42
 C     3.12330   1.23820   2.59070    25    26    28    13
 C     3.71360   0.11730   2.19060    26    25    29    27
 C     3.23020  -1.09580   2.59860    27    26    40    23
 C     3.08020   2.33400   1.76630    28    25    36    31
 C     4.26450   0.02830   0.94950    29    26    39    30
 C     4.18680   1.08150   0.01510    30    29    46    31
 C     3.56690   2.30930   0.44440    31    28    34    30
 C     0.73410   4.19480  -0.97380    32    78    86    33
 C     1.75900   3.95490  -0.03300    33    32    38    34
 C     2.86080   3.13760  -0.47470    34    35    31    33
 C     2.80140   2.64400  -1.79430    35    45    79    34
 C     1.99170   3.06830   2.16960    36    28    38    18
 C    -0.02880   4.06800   1.61070    37    82    16    38
 C     1.32130   3.91130   1.31580    38    36    37    33
 C     4.19020  -1.29910   0.62230    39    43    29    40
 C     3.53400  -2.00610   1.60070    40    39    27    41
 C     2.71830  -3.09950   1.31310    41    42    40    48
 C     1.65690  -3.25460   2.17050    42    50    41    24
 C     4.04650  -1.67120  -0.64670    43    39    47    44
 C     3.98590  -0.70550  -1.62450    44    43    61    46
 C     3.34320   1.44880  -2.19300    45    35    46    59
 C     4.06020   0.65690  -1.33260    46    45    44    30
 C     3.26150  -2.74340  -0.97760    47    53    43    48
 C     2.54000  -3.50770  -0.03660    48    47    41    56
 C     0.21440  -4.24600   0.46020    49    50    56    57
 C     0.47650  -3.83180   1.78100    50    42    51    49
 C    -0.49350  -3.32840   2.60970    51    52    50     8
 C    -1.75480  -3.27700   2.20280    52    51    58     3
 C     2.78870  -2.45350  -2.22160    53    54    47    61
 C     1.61700  -2.94250  -2.61880    54    53    74    55
 C     0.88850  -3.75850  -1.78450    55    62    54    56
 C     1.28200  -4.05410  -0.46610    56    55    49    48
 C    -1.15700  -4.17060   0.02450    57    58    63    49
 C    -2.10810  -3.70980   0.96050    58    52    66    57
 C     2.52090   0.92520  -3.21100    59    70    60    45
 C     2.37170  -0.42160  -3.44080    60    59    61    73
 C     3.18490  -1.21160  -2.63310    61    53    44    60
 C    -0.42020  -3.62320  -2.18030    62    63    55    67
 C    -1.46920  -3.84650  -1.32190    63    62    64    57
 C    -2.60960  -3.10240  -1.61730    64    65    69    63
 C    -3.47620  -2.68030  -0.63680    65    66    19    64
 C    -3.22180  -2.98380   0.63120    66    65    58     6
 C    -0.46440  -2.65320  -3.20180    67    74    68    62
 C    -1.55560  -1.84660  -3.42540    68    67    69    76
 C    -2.65000  -2.14850  -2.61780    69    87    64    68
 C     1.50030   1.80000  -3.43740    70    59    79    71
 C     0.21590   1.40970  -3.86070    71    70    81    72
 C    -0.00310  -0.00190  -4.06940    72    73    71    76
 C     1.10220  -0.90530  -3.86870    73    74    60    72
 C     0.79930  -2.20920  -3.44630    74    67    54    73
 C    -2.32490   0.40780  -3.43410    75    80    88    76
 C    -1.34060  -0.50460  -3.85730    76    75    68    72
 C    -0.55580   3.36290  -2.61580    77    78    85    81
 C     0.72520   3.64540  -2.22030    78    79    32    77
 C     1.72900   2.88140  -2.62040    79    78    35    70
 C    -2.07860   1.73100  -3.20680    80    75    81    83
 C    -0.83800   2.26640  -3.42830    81    80    77    71
 C    -0.97270   4.27980   0.63460    82    86    92    37
 C    -2.94270   2.17490  -2.18530    83    89    84    80
 C    -2.61340   3.19130  -1.31970    84    83    85    91
 C    -1.39590   3.80880  -1.61050    85    86    77    84
 C    -0.59050   4.33940  -0.64010    86    82    85    32
 C    -3.53490  -1.18740  -2.22000    87    88    19    69
 C    -3.37690   0.06980  -2.61470    88    87    89    75
 C    -3.71440   1.11090  -1.78790    89    88    83    90
 C    -4.15930   0.91680  -0.46680    90    89    21    20
 C    -3.03770   3.08910   0.03120    91    92    84    21
 C    -2.16550   3.68310   0.96390    92    15    82    91
