    92
C92-Cs-16                                                                       
 C     3.35550  -2.96350   0.69100     1     2     7    58
 C     3.92220  -1.93840   1.41250     2     1     4     3
 C     4.57020  -0.94840   0.68870     3    10     2    57
 C     3.20760  -1.55160   2.53430     4     8     5     2
 C     2.01540  -2.13990   2.91910     5     6    20     4
 C     1.46300  -3.19820   2.24290     6     5     7    24
 C     2.19490  -3.58560   1.11360     7    63     1     6
 C     3.16180  -0.23860   2.93310     8     4     9    12
 C     3.85280   0.74210   2.25290     9    11     8    10
 C     4.55020   0.37020   1.10970    10     3    30     9
 C     3.24550   1.97380   2.25340    11     9    28    17
 C     1.93150  -0.01600   3.54430    12    20    16     8
 C    -2.16840   0.00010   3.34790    13    14    43    21
 C    -0.83370   0.01130   3.69190    14    13    19    15
 C    -0.11960   1.27050   3.59450    15    16    14    42
 C     1.29870   1.21460   3.53650    16    12    17    15
 C     2.02400   2.20330   2.88730    17    37    16    11
 C    -2.16800  -2.30640   2.58240    18    21    27    26
 C    -0.16220  -1.25900   3.58820    19    20    14    27
 C     1.22250  -1.19910   3.54070    20     5    12    19
 C    -2.83940  -1.11730   2.86960    21    89    13    18
 C    -1.77420  -3.70540   0.70070    22    23    26    91
 C    -0.50350  -3.91790   1.12630    23    22    62    24
 C     0.05520  -3.33510   2.27510    24    23     6    27
 C    -3.74290  -2.47820   0.69980    25    88    26    92
 C    -2.68030  -2.99320   1.43320    26    22    25    18
 C    -0.79740  -2.41250   2.97630    27    18    24    19
 C     3.33200   2.81830   1.16660    28    32    11    29
 C     3.97330   2.42730  -0.00170    29    30    28    31
 C     4.58410   1.18780  -0.00950    30    29    10    47
 C     3.32730   2.80750  -1.17260    31    35    45    29
 C     2.18690   3.57920   1.17370    32    34    28    37
 C     0.27400   4.17820   0.00910    33    34    41    49
 C     1.62100   4.01270   0.00020    34    33    35    32
 C     2.18600   3.57320  -1.16810    35    34    31    51
 C     0.01210   3.34890   2.26840    36    37    41    42
 C     1.38450   3.22130   2.25000    37    17    36    32
 C    -3.73160   2.46910   0.69910    38    84    39    78
 C    -2.67660   2.99290   1.44130    39    40    38    44
 C    -1.78150   3.71270   0.69910    40    41    39    80
 C    -0.51580   3.92980   1.11840    41    40    33    36
 C    -0.80210   2.41300   2.98190    42    44    36    15
 C    -2.83920   1.11780   2.87380    43    82    13    44
 C    -2.17170   2.30070   2.59200    44    43    42    39
 C     3.25330   1.96660  -2.26350    45    46    31    52
 C     3.86420   0.73900  -2.25670    46    45    48    47
 C     4.56820   0.35720  -1.12030    47    57    30    46
 C     3.16410  -0.24510  -2.92760    48    55    46    54
 C    -0.50820   3.93040  -1.11010    49    80    33    50
 C     0.01380   3.33960  -2.26140    50    51    49    66
 C     1.38710   3.20390  -2.24120    51    52    50    35
 C     2.02730   2.19140  -2.89000    52    51    53    45
 C     1.29050   1.20440  -3.53120    53    54    52    67
 C     1.92710  -0.02810  -3.53040    54    69    53    48
 C     3.21820  -1.56120  -2.52710    55    48    56    59
 C     3.94230  -1.95290  -1.40880    56    58    57    55
 C     4.58900  -0.95860  -0.70150    57    56    47     3
 C     3.35760  -2.97610  -0.70180    58    56    61     1
 C     2.01640  -2.14720  -2.90800    59    60    69    55
 C     1.46060  -3.20760  -2.23500    60    59    61    65
 C     2.19680  -3.59780  -1.10970    61    63    58    60
 C     0.24040  -4.18040   0.00030    62    63    64    23
 C     1.55120  -4.02600   0.00380    63    62     7    61
 C    -0.50890  -3.93000  -1.12100    64    91    62    65
 C     0.05110  -3.34320  -2.26800    65    64    60    68
 C    -0.80210   2.40550  -2.97270    66    50    72    67
 C    -0.12900   1.25970  -3.58570    67    53    70    66
 C    -0.80130  -2.41670  -2.97090    68    76    65    71
 C     1.22010  -1.20880  -3.52940    69    54    59    71
 C    -0.84250   0.00210  -3.68320    70    74    71    67
 C    -0.16480  -1.26310  -3.58190    71    69    70    68
 C    -2.17280   2.30520  -2.57390    72    73    66    79
 C    -2.83320   1.11170  -2.85330    73    81    74    72
 C    -2.17340  -0.00580  -3.33670    74    70    73    75
 C    -2.84210  -1.12740  -2.86160    75    85    74    76
 C    -2.17460  -2.31740  -2.57560    76    75    90    68
 C    -4.41690   1.35560  -1.08170    77    81    78    83
 C    -3.73800   2.47770  -0.70330    78    77    79    38
 C    -2.68030   3.00460  -1.43010    79    80    78    72
 C    -1.78250   3.72010  -0.69840    80    49    79    40
 C    -3.93300   0.67200  -2.15640    81    77    85    73
 C    -3.94060   0.68020   2.17710    82    84    89    43
 C    -4.88810   0.67240   0.00530    83    87    84    77
 C    -4.41500   1.35350   1.09230    84    82    38    83
 C    -3.94370  -0.69110  -2.16180    85    86    81    75
 C    -4.42660  -1.36610  -1.08300    86    85    92    87
 C    -4.88840  -0.69300   0.01470    87    83    88    86
 C    -4.42700  -1.36880   1.10870    88    89    25    87
 C    -3.94710  -0.68750   2.18180    89    88    82    21
 C    -2.68390  -3.01040  -1.43020    90    91    92    76
 C    -1.78070  -3.71970  -0.70290    91    64    90    22
 C    -3.74560  -2.48620  -0.70330    92    86    90    25
