    92
C92-C1-37                                                                       
 C    -4.07120   0.24990  -1.94510     1     3     2    15
 C    -4.12090  -1.09130  -1.70340     2     4     6     1
 C    -4.34580   1.12750  -0.96450     3     1    14    44
 C    -4.40010  -1.56600  -0.46360     4     2    10    45
 C    -1.25950  -3.01080  -2.52980     5    91     7    17
 C    -3.16140  -1.70230  -2.44450     6     2     7    16
 C    -2.51360  -2.85280  -2.01120     7     5     6     8
 C    -2.76070  -3.37380  -0.70730     8    10     7     9
 C    -1.67700  -4.00110  -0.00430     9    11    90     8
 C    -3.71850  -2.64430   0.02630    10     4    51     8
 C    -1.61300  -3.71570   1.37540    11    71    50     9
 C    -2.68120   2.68080  -1.83360    12    14    23    13
 C    -2.32150   1.69100  -2.84040    13    15    20    12
 C    -3.65920   2.30090  -0.89800    14     3    36    12
 C    -3.05380   0.50740  -2.82440    15     1    16    13
 C    -2.50200  -0.70080  -3.17380    16    15    18     6
 C    -0.62990  -2.02620  -3.31450    17    81    18     5
 C    -1.19270  -0.80300  -3.58810    18    17    16    19
 C    -0.35460   0.34040  -3.70510    19    18    20    34
 C    -0.98280   1.60230  -3.34670    20    21    13    19
 C    -0.14780   2.62650  -2.98350    21    20    32    22
 C    -0.51290   3.62980  -2.07960    22    25    23    21
 C    -1.72860   3.62000  -1.39610    23    22    12    24
 C    -1.68090   4.03340  -0.01020    24    27    35    23
 C     0.64680   4.10860  -1.55970    25    28    26    22
 C     0.69700   4.49830  -0.26310    26    27    25    29
 C    -0.42270   4.40160   0.48660    27    26    37    24
 C     1.69770   3.45400  -2.10290    28    31    25    32
 C     1.78920   4.17620   0.49400    29    30    40    26
 C     2.84830   3.58600  -0.06440    30    29    66    31
 C     2.81430   3.23510  -1.39580    31    28    88    30
 C     1.23440   2.48680  -2.95960    32    28    21    33
 C     1.91080   1.27660  -3.20150    33    32    34    87
 C     1.10460   0.16490  -3.59520    34    33    82    19
 C    -2.55350   3.41640   0.90650    35    36    39    24
 C    -3.55470   2.61370   0.45120    36    35    14    43
 C     0.02790   3.99910   1.73230    37    38    40    27
 C    -0.75970   3.26790   2.49720    38    37    39    59
 C    -2.04220   3.02110   2.14980    39    38    41    35
 C     1.37540   3.76890   1.73060    40    29    37    65
 C    -2.41700   1.86280   2.79330    41    42    39    52
 C    -3.45040   1.08220   2.34890    42    41    43    47
 C    -4.06950   1.53440   1.17100    43    44    36    42
 C    -4.62200   0.66350   0.29190    44    45    43     3
 C    -4.62200  -0.66180   0.55140    45    44    48     4
 C    -2.19230  -0.81990   3.26630    46    49    54    47
 C    -3.37210  -0.30410   2.61280    47    48    42    46
 C    -4.02620  -1.14570   1.68540    48    51    45    47
 C    -1.84160  -2.13000   2.94040    49    57    50    46
 C    -2.50340  -2.87970   1.99270    50    51    11    49
 C    -3.55650  -2.38910   1.36650    51    50    48    10
 C    -1.28840   1.36030   3.43640    52    54    59    41
 C     0.28210  -0.43660   3.72250    53    56    54    63
 C    -1.09370   0.01650   3.66450    54    52    46    53
 C     1.71440  -2.24550   2.98060    55    56    64    69
 C     0.49010  -1.81370   3.42170    56    55    57    53
 C    -0.57020  -2.60410   3.00560    57    49    56    71
 C     1.11550   1.87590   3.24050    58    59    63    65
 C    -0.24180   2.23530   3.24510    59    38    52    58
 C     4.29620   0.13340   1.21450    60    74    79    61
 C     3.52510   0.82040   2.19540    61    67    60    62
 C     2.66500   0.00140   3.01710    62    64    63    61
 C     1.40580   0.49960   3.50380    63    58    62    53
 C     2.77680  -1.38770   2.81360    64    75    55    62
 C     1.98880   2.70680   2.45040    65    67    40    58
 C     3.55570   2.65370   0.61320    66    30    77    67
 C     3.16970   2.15280   1.88900    67    61    65    66
 C     3.02320  -3.11920   1.43710    68    69    75    72
 C     1.85770  -3.33000   2.09470    69    68    70    55
 C     0.76400  -3.97570   1.52510    70    71    69    89
 C    -0.43490  -3.63630   2.06390    71    70    11    57
 C     3.09150  -3.46560   0.12350    72    92    68    76
 C     4.36570  -1.52240  -0.26920    73    76    78    74
 C     4.31680  -1.20890   1.06920    74    75    60    73
 C     3.60540  -1.97960   1.89180    75    74    68    64
 C     3.73690  -2.60920  -0.73680    76    73    84    72
 C     4.08710   1.83710  -0.35640    77    79    66    88
 C     4.35960  -0.37910  -1.00050    78    73    79    86
 C     4.46330   0.62350  -0.06840    79    77    78    60
 C     0.90600  -3.29080  -2.41460    80    83    91    81
 C     0.71760  -2.18490  -3.21260    81    17    80    82
 C     1.65060  -1.14320  -3.34170    82    81    85    34
 C     2.03400  -3.45330  -1.75420    83    80    84    92
 C     3.03660  -2.53030  -1.90670    84    76    83    85
 C     2.90000  -1.33420  -2.66300    85    86    84    82
 C     3.63180  -0.20650  -2.21570    86    87    85    78
 C     3.16410   1.09440  -2.50320    87    86    88    33
 C     3.52830   2.11450  -1.59050    88    31    77    87
 C     0.80340  -4.32570   0.14290    89    92    70    90
 C    -0.41730  -4.25050  -0.60910    90    91     9    89
 C    -0.28540  -3.73580  -1.91020    91     5    80    90
 C     2.01120  -4.00990  -0.49570    92    72    83    89
