    92
C92-C1-56                                                                       
 C     0.58850   3.56040  -2.12080     1     2     6    56
 C     1.60830   2.79650  -2.60870     2     1     3     9
 C     2.77570   2.84550  -1.83280     3     4    55     2
 C     3.64520   1.80530  -1.79760     4     5     3    32
 C     3.38960   0.71260  -2.53320     5     4    21    10
 C    -0.71520   3.25830  -2.39010     6     1    61     7
 C    -1.14560   2.11770  -3.10840     7     6    16     8
 C    -0.11070   1.22170  -3.55940     8     7     9    12
 C     1.26390   1.61470  -3.33200     9    10     2     8
 C     2.22180   0.60770  -3.26730    10    14     5     9
 C    -1.77570  -0.60880  -3.39840    11    15    18    12
 C    -0.42900  -0.19640  -3.69210    12    11     8    13
 C     0.63690  -1.19160  -3.56190    13    14    28    12
 C     1.93050  -0.72890  -3.36080    14    10    13    22
 C    -1.93170  -1.94090  -2.97110    15    27    86    11
 C    -2.46860   1.67680  -2.81810    16    18     7    17
 C    -3.21250   2.38080  -1.82330    17    90    60    16
 C    -2.79370   0.30520  -2.97820    18    16    92    11
 C     4.13720  -1.89770  -0.29090    19    33    24    20
 C     4.43170  -0.68470  -0.89010    20    19    21    31
 C     3.79450  -0.51520  -2.12240    21     5    22    20
 C     2.92110  -1.43490  -2.67440    22    23    21    14
 C     2.67730  -2.65630  -2.10220    23    22    24    29
 C     3.33870  -2.85950  -0.88080    24    26    19    23
 C     1.58470  -4.17260  -0.08680    25    26    42    30
 C     2.74310  -3.56420   0.13020    26    25    24    36
 C    -0.90650  -2.83130  -2.79970    27    15    88    28
 C     0.41600  -2.52200  -3.07580    28    27    13    29
 C     1.41810  -3.23800  -2.32180    29    23    30    28
 C     0.94080  -4.08260  -1.29710    30    89    25    29
 C     4.60380   0.45350  -0.06010    31    32    35    20
 C     4.23230   1.69500  -0.56050    32     4    45    31
 C     3.92870  -2.00040   1.07030    33    34    36    19
 C     3.97360  -0.89910   1.82260    34    33    35    37
 C     4.34050   0.30430   1.30620    35    34    43    31
 C     3.02160  -2.97630   1.33820    36    33    26    39
 C     3.02620  -0.72130   2.81300    37    47    34    38
 C     2.02300  -1.64780   3.10270    38    37    49    39
 C     2.04560  -2.87990   2.35270    39    41    36    38
 C    -0.30800  -3.08840   2.67110    40    41    48    82
 C     0.84820  -3.57960   2.11740    41    40    42    39
 C     0.64080  -4.24910   0.90780    42    25    79    41
 C     3.70580   1.27640   2.04930    43    44    35    47
 C     3.38800   2.50500   1.53650    44    43    46    45
 C     3.68520   2.71290   0.19490    45    32    55    44
 C     2.24220   3.09490   2.01360    46    53    44    52
 C     2.85760   0.63020   2.95940    47    37    51    43
 C    -0.32810  -1.89650   3.37980    48    66    40    49
 C     0.79050  -1.10000   3.59270    49    48    38    50
 C     0.56030   0.33000   3.72130    50    51    49    68
 C     1.65570   1.17820   3.39370    51    52    47    50
 C     1.40100   2.45490   2.92120    52    70    51    46
 C     1.46210   3.92600   1.25010    53    46    57    54
 C     1.75370   4.12260  -0.09060    54    55    56    53
 C     2.84120   3.47220  -0.59520    55    54    45     3
 C     0.65110   4.22580  -0.89060    56    59    54     1
 C     0.16650   3.86490   1.73250    57    58    53    70
 C    -0.93550   4.11430   0.94850    58    57    59    64
 C    -0.62340   4.29250  -0.40890    59    61    56    58
 C    -2.64820   3.37720  -1.07190    60    61    17    65
 C    -1.45250   3.82210  -1.37470    61    60    59     6
 C    -3.21750   1.62030   2.32810    62    73    71    63
 C    -2.20680   2.58280   2.39370    63    62    69    64
 C    -2.16230   3.52640   1.29650    64    58    65    63
 C    -3.06930   3.29210   0.24250    65    74    60    64
 C    -1.60310  -1.39650   3.30390    66    48    67    76
 C    -1.86610  -0.04350   3.43070    67    71    66    68
 C    -0.79450   0.87170   3.60410    68    67    69    50
 C    -1.00650   2.21590   3.09060    69    70    63    68
 C     0.12730   2.93840   2.76270    70    52    69    57
 C    -3.04710   0.34120   2.82140    71    62    67    78
 C    -4.49310   0.22580   1.15350    72    78    73    75
 C    -4.14020   1.53210   1.31090    73    74    72    62
 C    -4.02510   2.34340   0.24040    74    65    73    90
 C    -4.70130  -0.27280  -0.09860    75    83    72    91
 C    -2.38030  -2.26670   2.53390    76    82    77    66
 C    -3.49510  -1.85590   1.83690    77    76    78    84
 C    -3.85080  -0.53560   2.07820    78    72    77    71
 C    -0.59680  -4.36210   0.31150    79    89    42    81
 C    -2.82530  -3.41640   0.07030    80    87    81    84
 C    -1.77310  -3.89880   0.89180    81    82    79    80
 C    -1.57050  -3.27810   2.11400    82    76    81    40
 C    -4.30630  -1.54600  -0.38020    83    75    85    84
 C    -3.73210  -2.42930   0.55100    84    83    80    77
 C    -3.84330  -1.48520  -1.68500    85    86    92    83
 C    -2.93490  -2.34050  -2.10110    86    85    87    15
 C    -2.49470  -3.35190  -1.30440    87    88    86    80
 C    -1.29210  -3.71850  -1.80840    88    89    87    27
 C    -0.37300  -4.27980  -1.04290    89    88    30    79
 C    -4.15740   1.81330  -1.02120    90    91    17    74
 C    -4.47330   0.53010  -1.18920    91    90    92    75
 C    -3.83870  -0.19730  -2.14810    92    91    85    18
