    92
C92-C1-43                                                                       
 C     3.62650  -1.06620   2.08210     1    60     2     4
 C     4.36940  -0.39850   1.07610     2    46     3     1
 C     4.32590   0.96160   0.91260     3     6     2    30
 C     2.83000  -0.24610   2.96660     4     5     8     1
 C     2.91810   1.12980   2.77510     5    11     6     4
 C     3.64220   1.71380   1.76110     6     3    24     5
 C     1.26990  -2.02790   3.20120     7    13     8    59
 C     1.58860  -0.71710   3.51750     8     7     4     9
 C     0.47080   0.15950   3.81980     9    10     8    15
 C     0.68630   1.55150   3.58590    10    11    12     9
 C     1.89520   1.99060   3.06910    11     5    10    25
 C    -0.38780   2.37470   3.26220    12    18    26    10
 C    -0.02440  -2.49520   3.16600    13    66     7    14
 C    -1.14670  -1.70870   3.42800    14    13    15    20
 C    -0.90410  -0.33600   3.76280    15    17    14     9
 C    -3.10910   0.13330   2.80760    16    19    17    86
 C    -1.95750   0.58250   3.44780    17    18    16    15
 C    -1.66370   1.90520   3.18270    18    12    17    88
 C    -3.30140  -1.18290   2.46950    19    16    20    92
 C    -2.34970  -2.12970   2.77110    20    19    21    14
 C    -2.30980  -3.20010   1.86870    21    65    90    20
 C     1.87330   3.91960  -0.34720    22    23    36    28
 C     3.00410   3.22120  -0.00040    23    22    24    29
 C     3.04050   2.85860   1.35800    24     6    25    23
 C     1.99850   3.09690   2.22170    25    27    24    11
 C    -0.28500   3.47520   2.41940    26    27    41    12
 C     0.90990   3.82410   1.85210    27    25    26    28
 C     0.86230   4.26670   0.55250    28    43    27    22
 C     3.59490   2.36040  -0.95250    29    30    23    32
 C     4.34030   1.28030  -0.43740    30    31     3    29
 C     4.50540   0.10030  -1.08260    31    34    30    46
 C     2.91060   2.12900  -2.20850    32    33    37    29
 C     3.06130   0.86250  -2.77990    33    34    32    53
 C     3.86410  -0.10700  -2.25350    34    31    47    33
 C    -0.04950   4.07940  -1.41110    35    38    36    43
 C     1.26700   3.74360  -1.57400    36    35    22    37
 C     1.70040   2.79120  -2.51220    37    36    32    40
 C    -0.99120   3.53720  -2.17240    38    35    83    39
 C    -0.63700   2.57630  -3.09700    39    54    38    40
 C     0.66610   2.13840  -3.28900    40    39    52    37
 C    -1.49670   3.62690   1.76730    41    88    26    42
 C    -1.58900   4.08000   0.45610    42    41    43    82
 C    -0.33840   4.37620  -0.10550    43    35    28    42
 C     4.05520  -2.13420  -0.47180    44    46    61    45
 C     3.44930  -2.34530  -1.68050    45    47    49    44
 C     4.56730  -0.92580  -0.17110    46    44     2    31
 C     3.33470  -1.31910  -2.54970    47    45    34    48
 C     2.19200  -1.16080  -3.27220    48    47    53    51
 C     2.43930  -3.24200  -1.55170    49    45    62    50
 C     1.26640  -3.19300  -2.31900    50    49    68    51
 C     1.12850  -2.06260  -3.23060    51    48    57    50
 C     0.79490   0.77810  -3.70760    52    53    40    56
 C     2.02450   0.20850  -3.46060    53    52    48    33
 C    -1.73680   1.77580  -3.26340    54    39    76    55
 C    -1.66280   0.42620  -3.60860    55    54    79    56
 C    -0.34600  -0.11300  -3.82620    56    55    52    57
 C    -0.14500  -1.53070  -3.56480    57    58    51    56
 C    -1.23780  -2.25290  -3.09110    58    80    57    67
 C     2.03240  -2.81130   2.33470    59    60    64     7
 C     3.18050  -2.36360   1.74260    60    59    61     1
 C     3.39360  -2.87080   0.45040    61    44    62    60
 C     2.44080  -3.64070  -0.21810    62    63    49    61
 C     1.30860  -4.09960   0.38280    63    62    64    69
 C     1.16660  -3.70340   1.72040    64    66    59    63
 C    -1.15310  -3.87270   1.62680    65    66    21    70
 C    -0.04810  -3.55530   2.29030    66    65    64    13
 C    -1.10210  -3.33840  -2.22880    67    72    58    68
 C     0.12500  -3.79090  -1.74710    68    67    50    69
 C     0.13750  -4.28020  -0.38890    69    70    63    68
 C    -1.08210  -4.23630   0.30110    70    73    65    69
 C    -3.12150  -2.40840  -1.87620    71    72    80    75
 C    -2.27160  -3.40090  -1.50470    72    73    71    67
 C    -2.26370  -3.83420  -0.23250    73    72    70    90
 C    -4.30890  -0.49870  -1.27370    74    89    75    78
 C    -4.02270  -1.82080  -0.98460    75    74    71    91
 C    -2.72690   2.28990  -2.43800    76    77    83    54
 C    -3.67980   1.49900  -1.95320    77    76    78    84
 C    -3.72020   0.18550  -2.32280    78    77    74    79
 C    -2.73380  -0.37830  -3.14020    79    80    78    55
 C    -2.48680  -1.69920  -2.89010    80    79    58    71
 C    -3.58010   2.63730   0.18870    81    84    87    82
 C    -2.61930   3.54740  -0.35590    82    83    42    81
 C    -2.25150   3.32650  -1.69910    83    76    38    82
 C    -4.13510   1.66700  -0.66940    84    89    77    81
 C    -4.40250   0.05650   1.01800    85    89    92    86
 C    -3.82110   0.92530   1.89900    86    85    87    16
 C    -3.42860   2.21320   1.54290    87    88    86    81
 C    -2.36790   2.69530   2.26730    88    41    87    18
 C    -4.54410   0.42440  -0.27130    89    85    84    74
 C    -3.06590  -3.22170   0.70330    90    73    91    21
 C    -3.95990  -2.22450   0.37280    91    90    92    75
 C    -4.10840  -1.23800   1.33590    92    85    91    19
