    92
C92-C1-54                                                                       
 C     2.72260  -1.38500  -2.86540     1     6     2    54
 C     2.69320  -0.04860  -3.16870     2     1     3    10
 C     3.56060   0.70290  -2.37300     3     4    53     2
 C     3.28910   2.00620  -2.08170     4     5     3    14
 C     2.20410   2.58350  -2.58740     5     4    15    11
 C     1.63000  -2.16180  -3.10960     6     1    66     8
 C    -0.68090  -2.36780  -3.23530     7    85     8    67
 C     0.42720  -1.63950  -3.60160     8     7     6     9
 C     0.27940  -0.24260  -3.85090     9     8    10    23
 C     1.48020   0.53110  -3.66350    10    11     2     9
 C     1.30680   1.87030  -3.36720    11    21    10     5
 C     3.02500   3.23030  -0.00520    12    14    26    13
 C     1.90140   3.90600  -0.56970    13    19    15    12
 C     3.73200   2.32700  -0.82870    14     4    24    12
 C     1.55370   3.54870  -1.89460    15     5    16    13
 C     0.27510   3.52270  -2.36240    16    17    15    21
 C    -0.72640   3.94540  -1.61610    17    16    92    18
 C    -0.47330   4.32760  -0.31450    18    40    17    19
 C     0.79830   4.26760   0.23930    19    20    18    13
 C     0.80370   3.85180   1.56240    20    25    19    39
 C     0.07950   2.45560  -3.22700    21    11    16    22
 C    -1.14200   1.77510  -3.35920    22    21    91    23
 C    -1.05450   0.37840  -3.69470    23    22    86     9
 C     4.37110   1.20150  -0.37910    24    28    14    53
 C     1.85550   3.16350   2.08930    25    20    26    30
 C     3.00080   2.86780   1.36850    26    25    27    12
 C     3.65520   1.71300   1.77900    27    28    32    26
 C     4.35390   0.89040   0.92200    28    24    43    27
 C    -0.03070   2.47560   3.12910    29    30    39    33
 C     1.33290   2.31210   3.06730    30    31    29    25
 C     1.92740   1.13010   3.41700    31    30    32    46
 C     3.14470   0.89030   2.77250    32    44    27    31
 C    -0.91780   1.45680   3.50940    33    29    37    34
 C    -0.33770   0.16240   3.82460    34    46    33    45
 C    -3.61630   2.37300   1.16980    35    78    83    36
 C    -2.60360   2.65970   2.10780    36    41    35    37
 C    -2.24770   1.58840   3.01640    37    38    33    36
 C    -2.97490   0.39990   2.91070    38    79    48    37
 C    -0.36400   3.47930   2.23260    39    41    29    20
 C    -1.63060   4.03280   0.36980    40    81    18    41
 C    -1.61930   3.56950   1.68680    41    39    40    36
 C     2.83580  -1.40260   2.88970    42    44    49    47
 C     4.28020  -0.41460   1.33070    43    44    28    51
 C     3.58080  -0.37360   2.50230    44    42    32    43
 C    -1.12810  -1.03330   3.57960    45    48    60    34
 C     1.09470   0.04240   3.79370    46    47    31    34
 C     1.62270  -1.22040   3.52800    47    61    42    46
 C    -2.42690  -0.85600   3.14090    48    45    38    72
 C     2.81650  -2.53550   2.13030    49    42    55    50
 C     3.45560  -2.64710   0.87270    50    49    58    51
 C     4.20700  -1.50740   0.43850    51    43    52    50
 C     4.20200  -1.16010  -0.94220    52    54    53    51
 C     4.27650   0.18220  -1.30410    53    24     3    52
 C     3.44860  -1.93650  -1.80120    54    59    52     1
 C     1.61280  -3.11680   2.41970    55    56    49    61
 C     1.00050  -3.90110   1.54330    56    55    62    57
 C     1.56690  -4.08210   0.30960    57    56    64    58
 C     2.76370  -3.45230  -0.06720    58    59    57    50
 C     2.77970  -3.05820  -1.39950    59    54    66    58
 C    -0.53480  -2.28630   3.22450    60    61    45    63
 C     0.85260  -2.31280   3.24450    61    47    55    60
 C    -0.36360  -3.96890   1.49510    62    56    68    63
 C    -1.20530  -3.20460   2.32090    63    62    73    60
 C     0.50220  -4.31560  -0.52960    64    57    65    68
 C     0.56110  -3.88730  -1.83640    65    66    67    64
 C     1.69270  -3.24370  -2.23650    66    65    59     6
 C    -0.62110  -3.46760  -2.37190    67    65    70     7
 C    -0.68790  -4.29060   0.19270    68    69    62    64
 C    -1.89640  -3.93130  -0.34790    69    68    70    76
 C    -1.80950  -3.53830  -1.69530    70    84    67    69
 C    -4.04980  -1.07120   1.65560    71    79    74    72
 C    -3.09710  -1.77940   2.33030    72    71    73    48
 C    -2.49160  -2.92630   1.81150    73    72    63    76
 C    -4.37470  -1.40880   0.38070    74    75    71    80
 C    -3.77720  -2.47010  -0.19670    75    74    87    76
 C    -2.86400  -3.30680   0.46280    76    75    69    73
 C    -4.54300   0.87030  -0.17330    77    80    82    78
 C    -4.29450   1.20730   1.13420    78    79    35    77
 C    -4.00130   0.23670   2.01600    79    78    71    38
 C    -4.56760  -0.41160  -0.54920    80    77    88    74
 C    -2.54360   3.56520  -0.53690    81    83    92    40
 C    -3.98350   1.79540  -1.00190    82    77    83    90
 C    -3.52380   2.77340  -0.15330    83    81    82    35
 C    -2.61690  -2.58450  -2.22230    84    87    70    85
 C    -1.92080  -1.79850  -3.11850    85     7    84    86
 C    -2.18480  -0.43100  -3.31650    86    85    89    23
 C    -3.61430  -2.08360  -1.52110    87    84    88    75
 C    -4.00510  -0.79080  -1.73390    88    80    87    89
 C    -3.31180   0.10500  -2.59830    89    90    88    86
 C    -3.32530   1.47600  -2.22860    90    91    89    82
 C    -2.25120   2.31050  -2.61760    91    90    92    22
 C    -1.95960   3.40380  -1.76140    92    17    81    91
