    92
C92-C1-8                                                                        
 C    -1.62250   3.80100   0.23070     1     7    53     2
 C    -2.13320   3.26760   1.41010     2     1    10     3
 C    -3.34850   2.50400   1.28470     3     4    71     2
 C    -3.57940   1.40180   2.14230     4     6     5     3
 C    -4.31380   0.29250   1.71270     5    51     4    19
 C    -2.58000   1.12040   3.04330     6     4    11    17
 C    -0.30010   4.07680   0.03340     7     1    64     8
 C     0.70290   3.89880   0.98170     8     7    15     9
 C     0.27450   3.30580   2.22060     9     8    13    10
 C    -1.13540   2.99280   2.39530    10    11     2     9
 C    -1.44180   1.89040   3.19610    11    29     6    10
 C     2.56750   2.43380   2.37800    12    14    85    13
 C     1.26710   2.52110   2.91250    13    12    28     9
 C     2.93380   2.99840   1.18570    14    12    15    92
 C     2.01440   3.70530   0.45260    15    14    16     8
 C     2.17550   3.55560  -0.93370    16    63    89    15
 C    -2.25530  -0.18670   3.41270    17    22    18     6
 C    -2.85720  -1.29980   2.87540    18    17    19    26
 C    -3.95220  -1.01470   2.05990    19    20    18     5
 C    -4.29310  -1.80900   1.00180    20    21    33    19
 C    -3.46670  -2.84180   0.71200    21    20    34    27
 C    -0.96280  -0.19410   3.81780    22    17    24    29
 C     1.19140  -1.01400   3.69780    23    43    24    30
 C    -0.14680  -1.31260   3.69100    24    23    22    25
 C    -0.63230  -2.45240   2.98640    25    24    26    45
 C    -2.01400  -2.42980   2.61260    26    27    25    18
 C    -2.37290  -3.15540   1.47980    27    21    47    26
 C     0.85330   1.39270   3.66510    28    29    30    13
 C    -0.46990   1.10640   3.75680    29    28    11    22
 C     1.68860   0.28450   3.73790    30    86    28    23
 C    -4.47260  -1.30700  -1.28980    31    32    52    33
 C    -3.61420  -2.32210  -1.56910    32    34    31    36
 C    -4.84250  -1.04630   0.01320    33    51    20    31
 C    -3.14510  -3.11850  -0.58230    34    35    32    21
 C    -1.90100  -3.63920  -0.63400    35    34    38    47
 C    -2.75280  -1.95220  -2.57580    36    32    37    56
 C    -1.48640  -2.48580  -2.71380    37    36    67    38
 C    -1.04880  -3.44780  -1.71660    38    41    35    37
 C     2.14280  -3.64910   0.08470    39    78    48    40
 C     0.79950  -3.92890  -0.13280    40    39    46    41
 C     0.29770  -3.68050  -1.47550    41    42    38    40
 C     1.18000  -3.08860  -2.36530    42    79    41    66
 C     2.13330  -1.78630   3.07670    43    23    44    81
 C     1.73550  -2.87270   2.31140    44    48    43    45
 C     0.35130  -3.20890   2.21350    45    44    46    25
 C    -0.08730  -3.80740   0.97310    46    47    40    45
 C    -1.42040  -3.74220   0.66960    47    46    27    35
 C     2.61990  -3.13690   1.27640    48    39    44    83
 C    -4.62420   1.25540  -0.40560    49    51    71    50
 C    -4.26170   0.97570  -1.72000    50    52    55    49
 C    -4.87650   0.24300   0.45270    51    49    33     5
 C    -4.14260  -0.29580  -2.14040    52    50    31    56
 C    -2.15660   3.50350  -1.00380    53    54    61     1
 C    -3.24400   2.78440  -1.12330    54    53    71    55
 C    -3.36010   1.88960  -2.16060    55    50    54    58
 C    -3.06300  -0.65260  -2.93420    56    36    52    57
 C    -2.08590   0.24260  -3.41360    57    56    58    68
 C    -2.26920   1.61170  -3.03170    58    60    55    57
 C     0.14850   1.99550  -3.34810    59    62    60    69
 C    -1.14060   2.44930  -2.95150    60    58    61    59
 C    -1.17010   3.43330  -1.92930    61    64    53    60
 C     1.24970   2.67240  -2.77650    62    76    63    59
 C     1.11630   3.59610  -1.76760    63    64    16    62
 C    -0.06970   3.91060  -1.31970    64    63    61     7
 C     1.71810   0.12270  -3.60930    65    70    75    69
 C     0.77530  -2.07070  -3.23630    66    67    70    42
 C    -0.53050  -1.66870  -3.38550    67    66    37    68
 C    -0.77640  -0.26610  -3.70370    68    57    69    67
 C     0.37010   0.63320  -3.74340    69    59    65    68
 C     1.86430  -1.24640  -3.41090    70    72    66    65
 C    -3.90410   2.34910  -0.01100    71    54    49     3
 C     2.93360  -1.80380  -2.75850    72    73    79    70
 C     3.92270  -1.05900  -2.22860    73    72    74    80
 C     3.85960   0.28720  -2.36790    74    73    90    75
 C     2.80040   0.89980  -3.06690    75    76    74    65
 C     2.50410   2.15600  -2.62580    76    75    62    89
 C     3.98370  -2.44750  -0.33470    77    83    78    80
 C     2.99850  -3.21100  -0.88950    78    79    77    39
 C     2.49070  -2.90340  -2.09850    79    78    42    72
 C     4.47630  -1.37070  -1.01470    80    87    77    73
 C     3.24950  -1.00280   2.79200    81    86    82    43
 C     4.09870  -1.23520   1.72340    82    81    83    88
 C     3.77120  -2.37770   1.00860    83    77    82    48
 C     4.21530   1.16320   1.47380    84    85    92    88
 C     3.38760   1.33310   2.54990    85    86    84    12
 C     2.93060   0.26130   3.20530    86    85    30    81
 C     4.78400  -0.21200  -0.36120    87    80    88    90
 C     4.62450  -0.10190   1.02310    88    87    84    82
 C     3.11260   2.72370  -1.49870    89    91    16    76
 C     4.45340   0.83690  -1.22510    90    91    87    74
 C     4.04690   2.05740  -0.75200    91    89    90    92
 C     3.94450   2.21490   0.61450    92    91    84    14
