    92
C92-C2-80                                                                       
 C     1.35090   3.49550   1.99630     1    14     2    56
 C     2.29370   3.54430   0.99700     2     1     3     7
 C     3.33260   2.63030   1.16750     3     4    57     2
 C     3.97700   2.06280   0.09060     4     5    23     3
 C     3.58660   2.37240  -1.14770     5     4     8    18
 C     0.47650   4.21030  -0.53470     6     9    12     7
 C     1.86230   3.90120  -0.30540     7     8     2     6
 C     2.57220   3.27430  -1.34650     8    11     5     7
 C    -0.03450   3.82950  -1.79340     9    10    92     6
 C     0.70270   3.14330  -2.72540    10    11     9    37
 C     1.98450   2.88230  -2.50960    11    10     8    21
 C    -0.47420   4.21310   0.52570    12    14     6    13
 C    -1.85980   3.90640   0.27920    13    15    91    12
 C     0.04090   3.84500   1.78380    14    70     1    12
 C    -2.57130   3.28310   1.32860    15    69    88    13
 C     3.22320  -0.84840  -2.57760    16    24    17    19
 C     3.94270   0.08980  -1.84940    17    16    18    22
 C     3.56130   1.40040  -2.11990    18     5    21    17
 C     2.16160  -0.51480  -3.43070    19    42    20    16
 C     1.75580   0.78180  -3.64050    20    19    21    38
 C     2.53310   1.72610  -2.98100    21    11    18    20
 C     4.38390  -0.26370  -0.54520    22    23    17    26
 C     4.37740   0.78760   0.39600    23    48     4    22
 C     3.00050  -2.11380  -2.11720    24    16    25    28
 C     3.44960  -2.52750  -0.86980    25    27    24    26
 C     4.11610  -1.57570  -0.05090    26    46    25    22
 C     2.64460  -3.49440  -0.28410    27    44    30    25
 C     1.81440  -2.57540  -2.69780    28    29    42    24
 C     1.02780  -3.53960  -2.10840    29    28    30    35
 C     1.50710  -4.00090  -0.88000    30    32    27    29
 C    -0.65180  -4.36960  -0.09180    31    32    36    55
 C     0.65590  -4.36760   0.12820    32    31    49    30
 C    -2.23270  -2.06790  -2.87010    33    43    83    34
 C    -0.91660  -2.44050  -3.15870    34    33    41    35
 C    -0.36300  -3.49740  -2.34770    35    36    29    34
 C    -1.17390  -3.99600  -1.30530    36    84    31    35
 C    -0.09180   2.26430  -3.42240    37    85    10    38
 C     0.37350   1.01490  -3.88030    38    37    20    40
 C    -1.94220   0.24270  -3.57310    39    43    87    40
 C    -0.57910  -0.06450  -3.92580    40    38    39    41
 C    -0.08910  -1.41700  -3.71830    41    42    34    40
 C     1.28030  -1.56780  -3.48220    42    19    28    41
 C    -2.71850  -0.80140  -3.06510    43    33    81    39
 C     2.41550  -3.52580   1.07210    44    45    49    27
 C     2.96650  -2.59840   1.84280    45    44    46    50
 C     3.83130  -1.67750   1.33280    46    47    45    26
 C     3.74390  -0.60050   2.16220    47    48    46    59
 C     4.03500   0.61410   1.71000    48    47    57    23
 C     1.16920  -3.99350   1.34070    49    44    32    52
 C     2.23460  -2.05260   2.88640    50    59    45    51
 C     0.91850  -2.42670   3.17530    51    50    61    52
 C     0.35850  -3.48890   2.37810    52    54    49    51
 C    -1.81100  -2.56230   2.71290    53    54    60    77
 C    -1.02820  -3.53370   2.13280    54    53    55    52
 C    -1.51830  -3.99780   0.90790    55    31    74    54
 C     1.37650   2.52560   3.01880    56    65    58     1
 C     3.36270   1.69650   2.19110    57    48     3    58
 C     2.33830   1.55680   3.12490    58    56    57    63
 C     2.72480  -0.78800   3.08840    59    50    47    63
 C    -1.27630  -1.54300   3.48370    60    66    53    61
 C     0.09640  -1.39230   3.72660    61    60    51    62
 C     0.58630  -0.03800   3.92940    62    63    64    61
 C     1.95060   0.26190   3.58700    63    59    58    62
 C    -0.36700   1.04300   3.87060    64    65    67    62
 C     0.09160   2.29220   3.41210    65    56    70    64
 C    -2.15840  -0.49130   3.43180    66    67    60    71
 C    -1.74670   0.80180   3.62730    67    66    68    64
 C    -2.52550   1.73980   2.95280    68    69    73    67
 C    -1.97690   2.90540   2.49430    69    70    15    68
 C    -0.70190   3.17170   2.71730    70    69    14    65
 C    -3.21770  -0.83610   2.58300    71    77    72    66
 C    -3.93690   0.09650   1.84790    72    71    73    79
 C    -3.55920   1.41300   2.09690    73    88    68    72
 C    -2.65370  -3.49850   0.30510    74    84    55    76
 C    -4.12060  -1.57920   0.06090    75    82    76    79
 C    -3.45450  -2.52280   0.89130    76    77    74    75
 C    -2.99900  -2.10530   2.13290    77    71    76    53
 C    -4.38870   0.78930  -0.38920    78    80    89    79
 C    -4.38700  -0.26300   0.54840    79    78    72    75
 C    -4.03420   0.59830  -1.70040    80    81    86    78
 C    -3.73690  -0.61850  -2.14310    81    80    82    43
 C    -3.83060  -1.69990  -1.32030    82    81    83    75
 C    -2.96900  -2.62290  -1.83250    83    84    82    33
 C    -2.42430  -3.54030  -1.05060    84    83    36    74
 C    -1.37010   2.50650  -3.02420    85    37    87    92
 C    -3.35920   1.68580  -2.17890    86    80    90    87
 C    -2.33450   1.53880  -3.11250    87    85    86    39
 C    -3.59160   2.38680   1.12660    88    89    15    73
 C    -3.98510   2.07050  -0.10890    89    88    90    78
 C    -3.34090   2.64170  -1.17660    90    89    86    91
 C    -2.29370   3.54660  -1.02240    91    92    90    13
 C    -1.34520   3.48560  -2.01100    92    91     9    85
