    92
C92-C1-44                                                                       
 C     0.75990  -2.66650  -2.96220     1     2     6    54
 C     1.97520  -2.82340  -2.36860     2     1     3     9
 C     2.85820  -1.78740  -2.65590     3     4     2    53
 C     3.88080  -1.48640  -1.82510     4     3     5    18
 C     4.00980  -2.13760  -0.64510     5     4    19    10
 C    -0.36140  -3.26140  -2.46750     6     1    69     7
 C    -0.40030  -3.95440  -1.24360     7     6    14     8
 C     0.84080  -4.03040  -0.51420     8     7     9    12
 C     2.04650  -3.52040  -1.12010     9    10     2     8
 C     3.09630  -3.10060  -0.28800    10     5    24     9
 C    -0.51480  -3.90930   1.48750    11    13    85    12
 C     0.76510  -4.00490   0.92820    12    11    23     8
 C    -1.68430  -3.88790   0.77500    13    11    14    92
 C    -1.67500  -3.90920  -0.60230    14    13    15     7
 C    -2.74770  -3.21980  -1.18470    15    68    89    14
 C     4.54930   0.51670  -0.82370    16    18    27    17
 C     4.67730  -0.12810   0.38520    17    19    30    16
 C     4.12630  -0.14810  -1.91790    18    16     4    37
 C     4.39930  -1.44910   0.46550    19    17    20     5
 C     3.73200  -1.94050   1.53880    20    19    24    21
 C     3.29660  -1.09860   2.57570    21    22    20    29
 C     2.15700  -1.52280   3.19600    22    21    25    43
 C     1.82250  -3.43360   1.69280    23    24    25    12
 C     2.96740  -3.02420   1.08460    24    23    10    20
 C     1.48480  -2.67630   2.82510    25    86    22    23
 C     3.14710   2.75440   1.27840    26    28    33    31
 C     4.10620   1.78240  -0.62380    27    16    28    35
 C     4.02060   1.90920   0.75300    28    26    30    27
 C     3.53590   0.29580   2.50450    29    30    21    32
 C     4.27760   0.72040   1.37920    30    17    28    29
 C     2.43970   2.43500   2.41640    31    47    26    32
 C     2.54090   1.19500   3.04580    32    31    44    29
 C     2.41520   3.56870   0.47490    33    26    39    34
 C     2.42490   3.43300  -0.92520    34    38    35    33
 C     3.23920   2.45610  -1.51530    35    34    27    36
 C     2.73580   1.71730  -2.65400    36    37    50    35
 C     3.23020   0.41780  -2.78810    37    18    53    36
 C     1.21740   3.72430  -1.51320    38    34    42    49
 C     1.29230   3.90130   1.19140    39    41    33    47
 C    -1.02160   4.00260   1.22580    40    41    61    48
 C     0.14650   4.28470   0.57050    41    39    40    42
 C     0.12830   4.20280  -0.80960    42    63    38    41
 C     1.22100  -0.64540   3.74290    43    78    44    22
 C     1.32770   0.73290   3.66210    44    43    32    45
 C     0.07720   1.47470   3.63250    45    46    44    80
 C     0.10510   2.74630   2.98000    46    48    47    45
 C     1.28370   3.16260   2.37890    47    31    46    39
 C    -1.04650   3.25090   2.39710    48    83    46    40
 C     0.72620   3.01570  -2.60010    49    55    38    50
 C     1.41510   1.95300  -3.17310    50    49    36    51
 C     0.59250   0.89400  -3.73960    51    52    50    58
 C     1.18970  -0.39920  -3.76220    52    53    54    51
 C     2.46500  -0.60360  -3.29820    53    52    37     3
 C     0.37640  -1.50680  -3.65760    54    60    52     1
 C    -0.64570   3.11420  -2.57700    55    49    57    63
 C    -2.72670   2.06000  -2.50780    56    65    64    57
 C    -1.46620   2.13720  -3.11740    57    55    56    58
 C    -0.87070   0.98140  -3.69710    58    57    59    51
 C    -1.67450  -0.21880  -3.65440    59    60    66    58
 C    -0.97460  -1.42600  -3.62260    60    54    69    59
 C    -2.18980   3.77440   0.54120    61    40    74    62
 C    -2.22280   3.71120  -0.84560    62    64    63    61
 C    -1.01920   3.88310  -1.48080    63    42    62    55
 C    -3.09270   2.81510  -1.39700    64    62    77    56
 C    -3.44380   0.89360  -2.45360    65    56    66    70
 C    -2.95800  -0.26060  -3.02570    66    65    67    59
 C    -3.38560  -1.43160  -2.38170    67    68    73    66
 C    -2.59680  -2.54040  -2.35380    68    69    15    67
 C    -1.42410  -2.54750  -2.96610    69    68     6    60
 C    -4.22960   0.89580  -1.29900    70    77    72    65
 C    -4.48530  -0.21950   0.75440    71    90    75    72
 C    -4.54240  -0.27290  -0.63490    72    73    70    71
 C    -4.12900  -1.44790  -1.21340    73    72    67    89
 C    -2.97400   2.94990   1.31730    74    76    61    83
 C    -4.12520   0.93600   1.42560    75    76    71    81
 C    -3.90570   2.11410   0.75220    76    74    75    77
 C    -3.96500   2.07080  -0.63330    77    70    64    76
 C     0.01070  -1.29550   3.78060    78    86    43    79
 C    -1.22890  -0.66370   3.75170    79    78    88    80
 C    -1.21300   0.77170   3.68140    80    82    79    45
 C    -3.38780   0.57810   2.55610    81    87    75    82
 C    -2.36930   1.38090   3.08400    82    83    81    80
 C    -2.24210   2.60180   2.45120    83    48    82    74
 C    -2.01620  -2.68730   2.62890    84    85    92    88
 C    -0.76420  -3.19740   2.64030    85    86    84    11
 C     0.21530  -2.54550   3.24750    86    85    25    78
 C    -3.35300  -0.78530   2.59790    87    81    88    90
 C    -2.30040  -1.43360   3.19630    88    87    84    79
 C    -3.72070  -2.54290  -0.46420    89    91    15    73
 C    -4.03710  -1.29500   1.49630    90    71    91    87
 C    -3.66730  -2.49050   0.91000    91    92    89    90
 C    -2.64520  -3.17600   1.50270    92    91    84    13
