    92
C92-C1-55                                                                       
 C     1.80950  -2.28420   2.91780     1     2    14    55
 C     2.98000  -2.15830   2.22820     2     1     3     7
 C     3.58530  -0.91130   2.37260     3     4     2    54
 C     4.39180  -0.38350   1.41780     4     3    18     5
 C     4.55890  -1.05290   0.24790     5     4     8    19
 C     2.02880  -3.69510   0.55490     6     9    12     7
 C     3.12530  -2.88530   1.01570     7     8     2     6
 C     3.93350  -2.25090   0.05080     8     5    11     7
 C     1.84210  -3.74750  -0.82890     9    92    10     6
 C     2.61050  -2.99940  -1.69840    10    11    24     9
 C     3.62810  -2.27510  -1.28790    11    10     8    20
 C     0.84060  -3.86300   1.31750    12    14     6    13
 C    -0.44740  -4.11160   0.69610    13    15    91    12
 C     0.81460  -3.14380   2.52380    14    70     1    12
 C    -1.59110  -3.68410   1.39130    15    69    87    13
 C     4.33440   1.64640   0.27150    16    18    22    17
 C     4.45460   0.97850  -0.92680    17    19    28    16
 C     4.26430   0.96760   1.43740    18    16     4    35
 C     4.56370  -0.35770  -0.93800    19    17    20     5
 C     3.91490  -1.07490  -1.89670    20    19    11    26
 C     2.13230   3.31110  -1.66400    21    23    31    29
 C     3.54650   2.73080   0.10140    22    16    23    33
 C     3.23780   2.73410  -1.24880    23    21    28    22
 C     1.84340  -2.55430  -2.73790    24    84    10    25
 C     1.97310  -1.26810  -3.33300    25    26    24    49
 C     3.06360  -0.48830  -2.87960    26    25    27    20
 C     2.93000   0.92770  -2.86340    27    26    28    30
 C     3.69270   1.60590  -1.87080    28    17    23    27
 C     1.38090   2.76240  -2.68310    29    45    21    30
 C     1.68860   1.52910  -3.28510    30    29    48    27
 C     1.33670   3.98390  -0.79310    31    21    37    32
 C     1.56120   3.93320   0.59360    32    36    33    31
 C     2.66040   3.22130   1.08670    33    32    22    34
 C     2.51850   2.43630   2.29450    34    35    51    33
 C     3.35180   1.32370   2.39840    35    18    54    34
 C     0.40340   3.95210   1.33040    36    32    40    50
 C     0.09210   4.01510  -1.35770    37    39    31    45
 C    -2.16970   3.59490  -1.09650    38    39    62    46
 C    -1.02660   4.15570  -0.59840    39    37    38    40
 C    -0.84800   4.12500   0.77210    40    64    36    39
 C    -1.66880  -0.95590  -3.57550    41    47    79    42
 C    -1.94670   0.40330  -3.52030    42    41    82    43
 C    -0.81140   1.29170  -3.60640    43    44    42    48
 C    -0.99560   2.56070  -2.97100    44    45    46    43
 C     0.11060   3.23570  -2.51660    45    29    44    37
 C    -2.17060   2.82760  -2.25890    46    83    38    44
 C    -0.39620  -1.44600  -3.69140    47    41    86    49
 C     0.56110   0.76020  -3.74810    48    49    30    43
 C     0.75800  -0.65780  -3.78640    49    47    48    25
 C     0.24700   3.18930   2.47730    50    56    36    51
 C     1.24850   2.35810   2.96800    51    50    34    52
 C     0.79460   1.15180   3.64490    52    53    51    59
 C     1.71100   0.05610   3.61880    53    54    55    52
 C     2.94620   0.16290   3.01990    54    53    35     3
 C     1.20280  -1.22830   3.61800    55    61    53     1
 C    -1.09900   2.94680   2.62830    56    50    58    64
 C    -2.83780   1.40530   2.82490    57    66    65    58
 C    -1.57360   1.81420   3.26860    58    56    57    59
 C    -0.63700   0.86670   3.77000    59    58    60    52
 C    -1.10320  -0.49930   3.81240    60    61    67    59
 C    -0.12530  -1.48530   3.71060    61    55    70    60
 C    -3.15830   3.12120  -0.26210    62    75    38    63
 C    -2.98500   3.08430   1.11640    63    65    64    62
 C    -1.78850   3.56140   1.58920    64    40    63    56
 C    -3.52510   2.01310   1.77360    65    63    78    57
 C    -3.23060   0.09250   2.83670    66    57    67    71
 C    -2.39010  -0.88080   3.32390    67    66    68    60
 C    -2.55300  -2.12710   2.69810    68    69    74    67
 C    -1.51210  -2.98710   2.56840    69    70    68    15
 C    -0.33550  -2.69500   3.09200    70    69    14    61
 C    -4.12920  -0.13180   1.79520    71    78    73    66
 C    -4.38210  -1.32120  -0.21870    72    73    88    76
 C    -4.19850  -1.35200   1.14940    73    74    72    71
 C    -3.38970  -2.35250   1.62420    74    73    68    87
 C    -3.83270   2.12620  -0.93450    75    62    77    83
 C    -4.47240  -0.11570  -0.91200    76    77    81    72
 C    -4.44790   1.09350  -0.25370    77    76    75    78
 C    -4.28110   1.06080   1.12260    78    71    65    77
 C    -2.43070  -1.91850  -2.92950    79    80    85    41
 C    -3.49060  -1.58330  -2.20320    80    79    81    88
 C    -3.86870  -0.28030  -2.15030    81    80    76    82
 C    -3.14420   0.73300  -2.79830    82    83    81    42
 C    -3.20380   1.94490  -2.16620    83    46    82    75
 C     0.66560  -3.20260  -2.58100    84    86    24    92
 C    -1.63930  -2.96130  -2.54870    85    86    79    90
 C    -0.43230  -2.69300  -3.09810    86    84    85    47
 C    -2.77580  -3.29670   0.79700    87    89    15    74
 C    -3.75960  -2.25010  -1.03840    88    80    72    89
 C    -2.91640  -3.27180  -0.57550    89    87    88    90
 C    -1.79750  -3.67510  -1.33930    90    85    89    91
 C    -0.58170  -4.12440  -0.71910    91    92    13    90
 C     0.61030  -3.92330  -1.40540    92     9    84    91
