    92
C92-C2-49                                                                       
 C     3.56320   1.77200   1.77420     1    58     2     4
 C     4.32670   1.23660   0.70870     2     3    35     1
 C     4.63700  -0.07550   0.59840     3     6     2    18
 C     3.01790   0.82000   2.71650     4     5     8     1
 C     3.40690  -0.50460   2.54280     5     6    11     4
 C     4.23280  -0.95060   1.53990     6     3    19     5
 C     1.14200   2.25950   3.04400     7    15     8    57
 C     1.72770   1.03850   3.31500     8     7     4     9
 C     0.81700  -0.03930   3.65650     9    10     8    13
 C     1.31620  -1.35210   3.39860    10    12    11     9
 C     2.57340  -1.55490   2.85880    11     5    10    20
 C     0.42510  -2.36440   3.13100    12    92    10    22
 C    -0.64440   0.16630   3.67990    13    14    91     9
 C    -1.16810   1.46680   3.38720    14    15    13    86
 C    -0.22240   2.46480   3.09350    15    67     7    14
 C     4.19960  -1.67350  -1.06390    16    18    24    17
 C     3.89380  -2.60180  -0.09220    17    19    27    16
 C     4.59410  -0.43760  -0.72750    18    16    34     3
 C     3.88700  -2.22020   1.20980    19    20     6    17
 C     2.87630  -2.63370   2.01110    20    19    21    11
 C     1.90180  -3.52840   1.59190    21    22    20    26
 C     0.70600  -3.41400   2.23530    22    54    21    12
 C     1.44730  -3.11760  -2.35330    23    25    28    30
 C     3.36540  -1.83160  -2.13310    24    16    25    32
 C     2.64320  -2.95270  -1.82690    25    23    24    27
 C     1.87190  -3.96300   0.23240    26    27    21    29
 C     2.89990  -3.41300  -0.55630    27    17    25    26
 C     0.46660  -3.80680  -1.70130    28    51    23    29
 C     0.60140  -4.23750  -0.36870    29    28    55    26
 C     0.91160  -2.15220  -3.17400    30    44    23    31
 C     1.52560  -0.91890  -3.44330    31    30    32    41
 C     2.84560  -0.75380  -2.90290    32    33    24    31
 C     3.31560   0.54100  -2.56660    33    36    32    34
 C     4.21230   0.64030  -1.46180    34    18    35    33
 C     4.18980   1.69940  -0.58720    35    38    34     2
 C     2.47760   1.65470  -2.81530    36    33    37    42
 C     2.65220   2.77000  -1.95560    37    39    38    36
 C     3.44450   2.75100  -0.83630    38    35    59    37
 C     1.66900   3.65970  -1.66750    39    40    37    62
 C     0.47660   3.53850  -2.24970    40    39    63    43
 C     0.63400   0.18620  -3.67890    41    42    31    47
 C     1.16320   1.48140  -3.37630    42    43    41    36
 C     0.21510   2.47310  -3.08320    43    40    49    42
 C    -0.43410  -2.34610  -3.13860    44    30    46    51
 C    -2.57610  -1.53980  -2.86800    45    72    46    52
 C    -1.32120  -1.33170  -3.41050    46    44    45    47
 C    -0.82730  -0.01820  -3.66200    47    46    48    41
 C    -1.73400   1.06230  -3.31660    48    49    73    47
 C    -1.14880   2.28000  -3.03690    49    43    48    68
 C    -1.90660  -3.51210  -1.59970    50    51    52    53
 C    -0.71540  -3.39890  -2.24740    51    50    28    44
 C    -2.88100  -2.61090  -2.01110    52    79    50    45
 C    -1.87700  -3.95320  -0.24230    53    56    50    55
 C    -0.48120  -3.81390   1.69960    54    22    81    55
 C    -0.61160  -4.23480   0.36540    55    54    29    53
 C    -2.90130  -3.40320   0.55600    56    78    83    53
 C     1.69190   3.19320   2.16120    57    58    61     7
 C     2.85730   2.94930   1.47380    58    57    59     1
 C     2.84470   3.46180   0.16640    59    38    62    58
 C     0.62640   4.42590   0.33450    60    62    61    64
 C     0.64580   3.94160   1.64830    61    67    57    60
 C     1.76140   4.11110  -0.36840    62    59    60    39
 C    -0.66110   3.94680  -1.63030    63    40    68    64
 C    -0.62810   4.41870  -0.31330    64    65    63    60
 C    -1.75780   4.08320   0.39660    65    64    70    66
 C    -1.68080   3.65090   1.70250    66    67    85    65
 C    -0.48740   3.53790   2.27560    67    66    61    15
 C    -1.70080   3.20780  -2.15470    68    69    63    49
 C    -2.86000   2.95300  -1.46540    69    68    70    76
 C    -2.84380   3.43530  -0.14740    70    84    65    69
 C    -4.22890  -0.93440  -1.55150    71    74    79    72
 C    -3.40870  -0.48810  -2.55870    72    71    45    73
 C    -3.02520   0.84110  -2.71980    73    72    48    76
 C    -4.63760  -0.07500  -0.59580    74    71    75    80
 C    -4.32630   1.23610  -0.70030    75    74    87    76
 C    -3.57180   1.78070  -1.76390    76    69    75    73
 C    -4.21120  -1.67980   1.06520    77    80    82    78
 C    -3.89890  -2.59860   0.08730    78    79    56    77
 C    -3.89550  -2.20810  -1.20860    79    78    52    71
 C    -4.60420  -0.44350   0.73080    80    77    88    74
 C    -1.46550  -3.13860   2.36060    81    83    54    92
 C    -3.38450  -1.84570   2.14060    82    83    77    90
 C    -2.65970  -2.96290   1.83720    83    81    82    56
 C    -3.43940   2.73040   0.86390    84    87    70    85
 C    -2.66090   2.76390   1.99130    85    66    84    86
 C    -2.49080   1.63830   2.83870    86    89    85    14
 C    -4.18560   1.67860   0.60280    87    84    88    75
 C    -4.22380   0.62380   1.48280    88    80    87    89
 C    -3.32610   0.52330   2.58880    89    86    90    88
 C    -2.85710  -0.77420   2.91710    90    89    82    91
 C    -1.53390  -0.94400   3.44920    91    92    90    13
 C    -0.91940  -2.17560   3.17900    92    12    81    91
