    92
C92-C2-34                                                                       
 C    -2.35830   1.02670  -3.31530     1     6     2    56
 C    -2.84940  -0.25640  -3.20220     2     1     3    10
 C    -3.91630  -0.39880  -2.30370     3     4    55     2
 C    -4.10250  -1.54920  -1.60920     4     5     3    14
 C    -3.21340  -2.55420  -1.76080     5     4    15    11
 C    -1.07940   1.28910  -3.68060     6     1     8    70
 C     1.14310   0.68340  -3.83490     7    24     8    71
 C    -0.16500   0.28480  -3.96480     8     7     6     9
 C    -0.52960  -1.07930  -3.74840     9     8    10    26
 C    -1.89730  -1.32080  -3.38410    10    11     9     2
 C    -2.14190  -2.45540  -2.61190    11     5    28    10
 C    -4.18000  -1.97070   0.70390    12    32    13    14
 C    -3.29530  -2.99460   0.52630    13    15    12    17
 C    -4.60870  -1.24370  -0.37030    14    40    12     4
 C    -2.82390  -3.30020  -0.69810    15    13    16     5
 C    -1.55170  -3.72160  -0.86850    16    15    19    28
 C    -2.44020  -3.05100   1.59470    17    13    33    18
 C    -1.13440  -3.52550   1.50700    18    17    35    19
 C    -0.67240  -3.93310   0.18750    19    16    22    18
 C     2.44370  -3.07720  -1.56420    20    87    29    21
 C     1.13880  -3.55220  -1.46940    21    20    27    22
 C     0.68170  -3.93150  -0.13980    22    23    19    21
 C     1.55170  -3.68990   0.91630    23    88    22    34
 C     2.16200  -0.18710  -3.56090    24     7    25    90
 C     1.88480  -1.51850  -3.29340    25    24    29    26
 C     0.53800  -1.99040  -3.33170    26    25    27     9
 C     0.20060  -3.06890  -2.42690    27    28    21    26
 C    -1.12130  -3.24150  -2.10870    28    27    11    16
 C     2.82540  -2.08900  -2.44610    29    20    25    92
 C    -3.19640   0.55540   2.93940    30    41    31    38
 C    -4.10070  -0.00370   2.05260    31    30    32    39
 C    -3.89490  -1.36920   1.89150    32    12    31    33
 C    -2.81510  -2.05460   2.47120    33    17    37    32
 C     1.12250  -3.19230   2.14770    34    35    47    23
 C    -0.20400  -3.02220   2.46440    35    34    18    36
 C    -0.53670  -1.93450   3.36250    36    37    35    49
 C    -1.88540  -1.46480   3.31120    37    38    33    36
 C    -2.15580  -0.13050   3.56130    38    51    37    30
 C    -4.54130   0.76660   0.93440    39    40    43    31
 C    -4.76340   0.10910  -0.27570    40    14    55    39
 C    -2.74760   1.83790   2.79000    41    42    44    30
 C    -3.11870   2.56330   1.72180    42    41    43    64
 C    -3.98290   2.04350   0.80330    43    42    53    39
 C    -1.51080   1.97470   3.31410    44    41    45    51
 C    -0.58950   2.88020   2.80420    45    46    44    63
 C     0.70170   2.53860   3.07200    46    65    45    52
 C     2.14370  -2.40750   2.65180    47    81    34    48
 C     1.89560  -1.26950   3.41820    48    47    49    84
 C     0.52970  -1.01960   3.77480    49    50    48    36
 C     0.15980   0.34630   3.97680    50    51    52    49
 C    -1.14250   0.74210   3.84120    51    38    50    44
 C     1.08520   1.33650   3.67310    52    85    50    46
 C    -3.60140   2.59160  -0.40620    53    54    43    57
 C    -3.78030   1.89130  -1.57800    54    56    55    53
 C    -4.36760   0.65170  -1.49680    55    54    40     3
 C    -2.79950   2.07270  -2.51090    56    54    60     1
 C    -2.49090   3.41530  -0.19620    57    64    59    53
 C    -0.16330   3.91470  -0.73830    58    59    62    67
 C    -1.50440   3.62850  -1.14570    59    57    60    58
 C    -1.73090   2.93340  -2.33470    60    70    56    59
 C     2.17670   3.38240  -1.17890    61    68    73    62
 C     0.88460   3.57770  -1.67040    62    61    69    58
 C    -0.89960   3.60750   1.61680    63    64    45    67
 C    -2.18980   3.40470   1.13700    64    57    42    63
 C     1.72810   2.96550   2.28570    65    46    77    66
 C     1.49760   3.64860   1.08810    66    68    65    67
 C     0.15540   3.92710   0.68960    67    66    63    58
 C     2.48970   3.42040   0.15160    68    61    66    80
 C     0.58670   2.83920  -2.85500    69    70    71    62
 C    -0.70350   2.50780  -3.11320    70    69    60     6
 C     1.51550   1.93290  -3.34120    71    74    69     7
 C     3.96880   2.03890  -0.84010    72    73    80    76
 C     3.10470   2.54390  -1.77130    73    74    72    61
 C     2.75510   1.79710  -2.82930    74    73    71    90
 C     4.74310   0.11360   0.25840    75    89    76    78
 C     4.52310   0.75740  -0.96370    76    75    72    91
 C     2.80050   2.10620   2.48360    77    79    65    85
 C     4.34550   0.66520   1.48190    78    79    83    75
 C     3.77280   1.91600   1.53810    79    77    80    78
 C     3.60250   2.60290   0.36520    80    79    72    68
 C     3.20530  -2.51840   1.78920    81    82    88    47
 C     4.08990  -1.50700   1.62740    82    81    83    89
 C     3.90760  -0.35940   2.32170    83    82    78    84
 C     2.84610  -0.20650   3.22320    84    85    83    48
 C     2.36570   1.07740   3.31440    85    52    84    77
 C     4.19130  -1.99030  -0.68410    86    89    87    92
 C     3.29960  -3.00590  -0.49930    87    88    86    20
 C     2.82890  -3.28100   0.73070    88    87    23    81
 C     4.59980  -1.24390   0.37900    89    86    75    82
 C     3.20840   0.51790  -2.96400    90    74    91    24
 C     4.10280  -0.04030  -2.07130    91    90    92    76
 C     3.91410  -1.39990  -1.88420    92    86    91    29
