    92
C92-C1-68                                                                       
 C    -0.19320  -1.91470  -3.66120     1     9     2     4
 C     1.09790  -2.24880  -3.35360     2     1     3     7
 C     2.00620  -1.21540  -3.55970     3    55     6     2
 C    -0.58400  -0.61610  -4.03900     4    22     5     1
 C     0.28950   0.43560  -4.11680     5     4     6    20
 C     1.61550   0.06740  -3.91610     6    61     3     5
 C     1.31790  -3.20890  -2.32010     7     8     2    11
 C     2.52830  -3.02090  -1.62930     8    24    54     7
 C    -1.25660  -2.51590  -3.05380     9     1    14    10
 C    -1.12560  -3.46880  -2.02440    10     9    17    11
 C     0.21550  -3.80780  -1.61070    11     7    10    12
 C     0.41990  -4.16380  -0.22620    12    13    23    11
 C    -0.70050  -4.12680   0.61350    13    18    25    12
 C    -2.30210  -1.62670  -3.14630    14    15    22     9
 C    -3.30100  -1.67800  -2.26990    15    14    16    92
 C    -3.28980  -2.59420  -1.26580    16    15    31    17
 C    -2.22140  -3.48850  -1.10970    17    18    16    10
 C    -1.96650  -3.80830   0.20330    18    13    17    33
 C     0.84200   2.54900  -3.19160    19    72    60    20
 C    -0.16720   1.73020  -3.73460    20    19     5    88
 C    -2.42090   0.81170  -3.28940    21    22    91    88
 C    -1.88450  -0.42780  -3.67580    22     4    14    21
 C     1.66130  -3.89900   0.42240    23    24    27    12
 C     2.68650  -3.33710  -0.30450    24     8    23    37
 C    -0.63270  -3.73930   1.93550    25    26    28    13
 C     0.52570  -3.40340   2.48830    26    25    27    45
 C     1.67330  -3.52260   1.77400    27    26    35    23
 C    -1.77320  -3.11540   2.31720    28    25    33    29
 C    -1.74100  -2.03160   3.21680    29    30    28    44
 C    -2.73620  -1.10740   2.99580    30    29    46    34
 C    -3.98210  -2.01830  -0.21530    31    32    16    83
 C    -3.64670  -2.29730   1.08840    32    33    31    34
 C    -2.65620  -3.21890   1.26860    33    32    28    18
 C    -3.68350  -1.24580   1.98490    34    86    32    30
 C     2.56270  -2.62020   2.30970    35    36    27    39
 C     3.56310  -2.06880   1.55770    36    35    38    37
 C     3.62480  -2.45650   0.24200    37    36    53    24
 C     3.91140  -0.77330   1.82820    38    36    41    51
 C     1.88430  -1.88930   3.28910    39    45    40    35
 C     2.17660  -0.57740   3.55760    40    39    41    49
 C     3.25300  -0.06520   2.81590    41    43    38    40
 C     2.37890   2.06770   2.87030    42    43    68    50
 C     3.32790   1.23570   2.45250    43    42    41    62
 C    -0.50050  -1.58560   3.74230    44    45    29    48
 C     0.60840  -2.36570   3.39150    45    39    26    44
 C    -2.54670   0.23450   3.24850    46    30    77    47
 C    -1.34320   0.76110   3.73550    47    46    81    48
 C    -0.26490  -0.18360   4.00800    48    49    44    47
 C     1.09980   0.28540   3.93030    49    50    40    48
 C     1.28240   1.62660   3.59720    50    82    42    49
 C     4.31010   0.12020   0.83300    51    62    52    38
 C     4.37400  -0.24040  -0.49800    52    51    53    57
 C     4.03720  -1.58790  -0.74520    53    54    37    52
 C     3.40780  -1.98650  -1.88680    54    55    53     8
 C     3.14710  -1.08250  -2.82500    55    54     3    58
 C     3.62910   2.05900  -1.04790    56    59    64    57
 C     4.04290   0.74040  -1.46830    57    58    52    56
 C     3.46040   0.24040  -2.64750    58    61    55    57
 C     2.68660   2.71140  -1.87470    59    67    60    56
 C     2.14390   2.13200  -2.99880    60    61    59    19
 C     2.52970   0.92040  -3.36800    61    60    58     6
 C     3.92890   1.38680   1.22220    62    43    51    64
 C     2.58100   3.34620   0.80930    63    68    66    64
 C     3.55730   2.40610   0.33340    64    62    56    63
 C     0.39440   4.29250   0.31690    65    76    70    66
 C     1.67860   3.95280  -0.10030    66    67    65    63
 C     1.74290   3.59910  -1.42660    67    59    66    72
 C     2.04300   3.13310   2.09810    68    42    74    63
 C    -1.78830   3.95730   0.31270    69    73    70    75
 C    -0.71950   4.22330  -0.49830    70    69    65    71
 C    -0.67510   3.76540  -1.81310    71    72    70    87
 C     0.60280   3.50420  -2.24500    72    19    71    67
 C    -2.83540   3.29480  -0.16270    73    69    78    89
 C     0.76240   3.43770   2.45310    74    76    68    82
 C    -1.37780   3.77020   1.61080    75    76    69    80
 C    -0.04890   4.03290   1.59140    76    74    75    65
 C    -3.40750   0.92380   2.39760    77    79    86    46
 C    -3.54660   2.47130   0.65520    78    73    84    79
 C    -3.12460   2.20430   1.97360    79    77    80    78
 C    -1.97010   2.83010   2.47890    80    79    75    81
 C    -1.08360   2.12130   3.36720    81    82    47    80
 C     0.25800   2.49410   3.33380    82    50    74    81
 C    -4.37600  -0.74400  -0.60100    83    85    92    31
 C    -4.14090   1.53270  -0.16170    84    85    78    90
 C    -4.45980   0.28580   0.30710    85    84    83    86
 C    -4.09140   0.00860   1.61130    86    34    85    77
 C    -1.76040   2.99960  -2.33280    87    89    71    88
 C    -1.52160   1.94600  -3.28850    88    20    87    21
 C    -2.84950   2.83220  -1.46340    89    90    73    87
 C    -3.68240   1.74890  -1.47100    90    89    91    84
 C    -3.51180   0.72290  -2.37170    91    90    92    21
 C    -3.92490  -0.52490  -1.89460    92    15    83    91
