    92
C92-C2-31                                                                       
 C    -1.79100  -3.50220  -1.54560     1     2     6    57
 C    -2.54870  -2.57730  -2.21780     2     1     3     9
 C    -3.67570  -2.09840  -1.53720     3     4    56     2
 C    -4.18510  -0.86910  -1.76020     4     3     5    19
 C    -3.56660  -0.05450  -2.64670     5     4    20    10
 C    -0.44840  -3.68390  -1.76960     6     1    68     7
 C     0.28420  -2.90880  -2.67500     7     6    15     8
 C    -0.43830  -1.83430  -3.33750     8     9    12     7
 C    -1.84820  -1.71450  -3.11770     9    10     2     8
 C    -2.41240  -0.44720  -3.28030    10     5    26     9
 C     1.66020  -0.66570  -3.49850    11    12    16    27
 C     0.29840  -0.63280  -3.69040    12    11    25     8
 C     3.43840  -2.83300  -0.73360    13    90    73    14
 C     2.28010  -3.44680  -1.25610    14    70    13    15
 C     1.68490  -2.84920  -2.43460    15    16     7    14
 C     2.34890  -1.74040  -2.94740    16    91    11    15
 C    -4.61570   0.96950  -0.36570    17    19    33    18
 C    -4.06760   1.80180  -1.31990    18    20    22    17
 C    -4.68510  -0.35640  -0.59440    19    17    42     4
 C    -3.51470   1.28200  -2.43800    20    18     5    21
 C    -2.34230   1.76700  -2.94010    21    20    26    24
 C    -3.44040   2.83490  -0.70960    22    18    34    23
 C    -2.28410   3.45140  -1.22840    23    37    22    24
 C    -1.68560   2.87590  -2.41400    24    21    30    23
 C    -0.30040   0.67700  -3.69050    25    26    12    29
 C    -1.66120   0.69810  -3.50760    26    25    10    21
 C     2.41420   0.48160  -3.27110    27    84    11    28
 C     1.84210   1.74790  -3.10950    28    27    29    87
 C     0.43430   1.87440  -3.32680    29    28    25    30
 C    -0.28690   2.94320  -2.65070    30    31    24    29
 C     0.45710   3.70190  -1.74190    31    88    36    30
 C    -2.72950   3.06680   1.49890    32    34    35    38
 C    -4.27140   1.43460   0.87400    33    34    17    40
 C    -3.63670   2.62230   0.64370    34    32    33    22
 C    -1.69230   3.83490   1.08160    35    32    52    37
 C    -0.10600   4.20710  -0.57830    36    37    50    31
 C    -1.43460   4.05130  -0.28450    37    36    23    35
 C    -2.34940   2.30320   2.57930    38    44    32    39
 C    -2.85570   1.02850   2.81790    39    38    48    40
 C    -3.90970   0.57120   1.93940    40    41    33    39
 C    -4.04250  -0.81290   1.68190    41    43    42    40
 C    -4.44040  -1.25210   0.39910    42    19    56    41
 C    -3.18030  -1.66990   2.32710    43    41    54    49
 C    -1.07440   2.69110   2.88610    44    38    46    52
 C     1.16670   2.13120   3.20280    45    62    46    53
 C    -0.15960   1.82580   3.47130    46    45    44    47
 C    -0.54150   0.48590   3.73710    47    46    48    64
 C    -1.92080   0.11790   3.42650    48    49    39    47
 C    -2.16770  -1.22240   3.16980    49    66    48    43
 C     0.89020   4.22760   0.38110    50    80    36    51
 C     0.61360   3.92190   1.70150    51    52    53    50
 C    -0.68700   3.69820   2.00320    52    51    35    44
 C     1.54840   3.16820   2.35840    53    83    51    45
 C    -2.76020  -2.87060   1.78100    54    58    43    55
 C    -3.07620  -3.23540   0.48200    55    56    57    54
 C    -3.90200  -2.39220  -0.18900    56    55    42     3
 C    -2.06610  -3.85010  -0.22490    57    61    55     1
 C    -1.54810  -3.19170   2.33140    58    54    60    66
 C     0.69000  -3.70870   1.96960    59    60    69    67
 C    -0.61280  -3.93500   1.65880    60    59    58    61
 C    -0.88370  -4.23140   0.33620    61    57    60    68
 C     2.16410   1.18970   3.18360    62    45    63    74
 C     1.90880  -0.15040   3.43200    63    62    78    64
 C     0.52800  -0.52140   3.73470    64    65    63    47
 C     0.14740  -1.86100   3.46050    65    66    67    64
 C    -1.17290  -2.16650   3.19170    66    49    65    58
 C     1.07380  -2.71190   2.87190    67    79    65    59
 C     0.11570  -4.21230  -0.61870    68    70    61     6
 C     1.69920  -3.85550   1.05110    69    71    59    70
 C     1.44090  -4.06050  -0.31200    70    68    69    14
 C     2.72760  -3.08250   1.48050    71    73    69    79
 C     4.26140  -1.43660   0.85960    72    73    89    77
 C     3.62980  -2.62640   0.62330    73    71    72    13
 C     3.17840   1.64660   2.34550    74    76    83    62
 C     4.43520   1.23760   0.40500    75    92    81    76
 C     4.03610   0.79430   1.68640    76    74    77    75
 C     3.89620  -0.58930   1.93860    77    76    72    78
 C     2.84470  -1.05530   2.81530    78    79    63    77
 C     2.34730  -2.32830   2.56740    79    67    71    78
 C     2.07400   3.85400  -0.19360    80    50    82    88
 C     3.89490   2.38810  -0.16890    81    82    75    86
 C     3.07520   3.22490   0.51900    82    81    80    83
 C     2.75830   2.85380   1.81080    83    53    82    74
 C     3.56640   0.07790  -2.64680    84    85    91    27
 C     4.18100   0.88810  -1.75160    85    86    84    92
 C     3.66910   2.11850  -1.52300    86    85    81    87
 C     2.54320   2.60370  -2.20210    87    88    86    28
 C     1.79960   3.52570  -1.51950    88    87    31    80
 C     4.61530  -0.97060  -0.38320    89    92    72    90
 C     4.07220  -1.79910  -1.33720    90    91    13    89
 C     3.52740  -1.26280  -2.44940    91    90    84    16
 C     4.68840   0.35550  -0.59710    92    89    75    85
