    92
C92-C1-53                                                                       
 C    -3.23720   0.97410  -2.64390     1     6     2    59
 C    -2.78540  -0.22630  -3.13440     2     1     3    10
 C    -3.30390  -1.33020  -2.43180     3     4    58     2
 C    -2.60070  -2.48290  -2.32110     4     5     3    14
 C    -1.43840  -2.59810  -2.95060     5     4    15    11
 C    -2.44990   2.08900  -2.72740     6     1    66     8
 C    -0.32050   3.01580  -2.76670     7    85     8    67
 C    -1.16250   2.05260  -3.28080     8     7     6     9
 C    -0.59270   0.83740  -3.77060     9     8    10    23
 C    -1.47740  -0.30130  -3.71160    10    11     2     9
 C    -0.86820  -1.53800  -3.63520    11    21    10     5
 C    -1.82290  -3.84680  -0.46960    12    14    25    13
 C    -0.60130  -4.05790  -1.19890    13    15    19    12
 C    -2.81830  -3.08910  -1.10550    14    42     4    12
 C    -0.48020  -3.40400  -2.44340    15     5    16    13
 C     0.68750  -2.90800  -2.94040    16    17    15    21
 C     1.81810  -3.13190  -2.30150    17    16    92    18
 C     1.81680  -3.79720  -1.09980    18    17    39    19
 C     0.62670  -4.22800  -0.51670    19    20    18    13
 C     0.61780  -4.12050   0.85540    20    24    19    38
 C     0.48450  -1.71960  -3.61590    21    11    16    22
 C     1.41810  -0.67360  -3.64420    22    21    23    91
 C     0.87590   0.65550  -3.72550    23    22    86     9
 C    -0.54530  -3.88280   1.53990    24    20    27    25
 C    -1.81420  -3.74560   0.95140    25    24    12    26
 C    -2.75850  -2.90290   1.63210    26    29    41    25
 C    -0.15970  -3.19140   2.65990    27    28    30    24
 C    -1.01090  -2.36430   3.24410    28    27    29    31
 C    -2.28340  -2.24490   2.78580    29    28    43    26
 C     1.17660  -2.92910   2.66410    30    27    38    33
 C    -0.55820  -1.18920   3.79690    31    49    28    32
 C     0.77760  -0.81750   3.78490    32    31    51    33
 C     1.72510  -1.76290   3.23140    33    36    30    32
 C     4.30310  -1.25650   0.66690    34    78    83    35
 C     3.54430  -2.03520   1.56690    35    34    40    36
 C     2.95190  -1.33560   2.68830    36    37    33    35
 C     3.20590   0.03390   2.79470    37    79    36    50
 C     1.70050  -3.56560   1.56530    38    40    30    20
 C     2.89330  -3.30680  -0.39730    39    81    18    40
 C     2.86720  -3.13310   0.98390    40    38    39    35
 C    -3.75080  -2.19070   0.90810    41    42    45    26
 C    -3.74980  -2.30330  -0.46830    42    14    41    58
 C    -2.66730  -0.99440   3.16940    43    44    29    49
 C    -3.61460  -0.36400   2.48120    44    43    47    45
 C    -4.17730  -0.93520   1.37200    45    44    56    41
 C    -2.17740   2.85520   2.19620    46    48    55    61
 C    -3.55640   0.99050   2.36190    47    44    60    48
 C    -2.48830   1.72340   2.91050    48    46    47    53
 C    -1.60550  -0.30950   3.73430    49    31    43    53
 C     2.25210   0.95280   3.25620    50    51    72    37
 C     1.00300   0.59570   3.72840    51    50    32    52
 C    -0.08230   1.55220   3.58220    52    53    51    54
 C    -1.43410   1.06680   3.60180    53    49    48    52
 C     0.18520   2.77930   2.84730    54    55    73    52
 C    -0.89520   3.36110   2.17170    55    46    68    54
 C    -4.54240   0.11450   0.54800    56    57    45    60
 C    -4.49080  -0.00950  -0.82540    57    58    59    56
 C    -4.09380  -1.23290  -1.30110    58    57     3    42
 C    -4.07480   1.09710  -1.53630    59    63    57     1
 C    -4.18220   1.30860   1.16910    60    62    47    56
 C    -2.82170   3.20340   1.01260    61    64    62    46
 C    -3.81040   2.41670   0.45020    62    60    61    63
 C    -3.77320   2.29430  -0.93130    63    59    66    62
 C    -1.92230   3.90610   0.25580    64    61    68    65
 C    -1.90510   3.79030  -1.12570    65    67    66    64
 C    -2.81480   2.93540  -1.68100    66    65    63     6
 C    -0.68150   3.86030  -1.71050    67    65    70     7
 C    -0.75090   4.05910   0.98120    68    69    64    55
 C     0.47370   4.23530   0.39100    69    68    76    70
 C     0.45490   4.14750  -1.01160    70    84    67    69
 C     3.59180   1.97780   1.81460    71    74    79    72
 C     2.48820   2.16140   2.60910    72    71    50    73
 C     1.47450   3.07380   2.31330    73    72    54    76
 C     3.68950   2.61510   0.62720    74    75    71    80
 C     2.72510   3.48310   0.26450    75    74    87    76
 C     1.62310   3.80890   1.07410    76    69    75    73
 C     4.57190   0.68790  -0.36030    77    80    82    78
 C     4.55340   0.05900   0.86270    78    79    34    77
 C     4.02610   0.69760   1.92970    79    78    71    37
 C     4.14470   1.94730  -0.48360    80    77    88    74
 C     3.52240  -2.40340  -1.21860    81    83    92    39
 C     4.28170  -0.20410  -1.35160    82    77    83    90
 C     4.23320  -1.41710  -0.70610    83    81    82    34
 C     1.49540   3.63060  -1.70760    84    87    70    85
 C     1.03910   2.85170  -2.75130    85     7    84    86
 C     1.71460   1.70280  -3.20270    86    85    23    89
 C     2.63160   3.35050  -1.11090    87    84    88    75
 C     3.41500   2.33100  -1.57070    88    80    87    89
 C     2.99350   1.43600  -2.59520    89    90    88    86
 C     3.46850   0.10110  -2.48790    90    91    89    82
 C     2.68400  -0.95130  -3.01780    91    90    92    22
 C     2.81280  -2.21060  -2.37310    92    17    81    91
