    92
C92-Cs-24                                                                       
 C     4.33840   1.51660   0.00220     1     2    57     7
 C     4.60770   0.17900  -0.00200     2     1     3     4
 C     4.36580  -0.49690  -1.18090     3    10     2    54
 C     4.35650  -0.50290   1.17420     4     8     2     5
 C     3.75110   0.11370   2.26920     5    20     6     4
 C     3.41860   1.45040   2.27780     6     5     7    17
 C     3.82010   2.15840   1.13400     7    59     1     6
 C     3.97230  -1.82620   1.16680     8     4    12     9
 C     3.79420  -2.54160  -0.00940     9    11    10     8
 C     3.97710  -1.81940  -1.18060    10    24     3     9
 C     2.77520  -3.47800  -0.00750    11    15    22     9
 C     3.16020  -2.03020   2.26140    12    14     8    20
 C     1.05060  -2.70250   2.95280    13    14    32    21
 C     2.17280  -2.98770   2.23780    14    13    15    12
 C     1.98050  -3.71380   1.08850    15    14    11    34
 C     1.57410   2.97090   2.44980    16    60    87    17
 C     2.20950   1.83610   2.96540    17    16    18     6
 C     1.36420   0.87260   3.61620    18    19    17    89
 C     1.82940  -0.48330   3.59860    19    21    20    18
 C     2.99860  -0.81860   2.92570    20     5    19    12
 C     0.88950  -1.50290   3.63170    21    92    19    13
 C     1.98760  -3.69240  -1.11690    22    23    11    26
 C     2.17060  -2.96250  -2.26610    23    25    22    24
 C     3.16280  -2.01060  -2.27490    24    23    10    40
 C     1.05160  -2.67730  -2.97650    25    23    29    38
 C     0.71410  -4.07020  -0.69290    26    34    28    22
 C    -1.69860  -3.63400  -0.74570    27    28    31    36
 C    -0.44320  -3.81370  -1.41190    28    26    29    27
 C    -0.20360  -3.12840  -2.60480    29    51    25    28
 C    -3.73990  -2.30300  -0.70010    30    37    82    31
 C    -2.71000  -2.88170  -1.44530    31    30    50    27
 C    -0.20390  -3.15750   2.57300    32    84    13    33
 C    -0.45310  -3.84060   1.37900    33    34    32    36
 C     0.70960  -4.09030   0.67260    34    26    33    15
 C    -2.71570  -2.89580   1.41810    35    37    86    36
 C    -1.70560  -3.64450   0.72030    36    33    35    27
 C    -3.74400  -2.30580   0.68340    37    30    80    35
 C     0.89850  -1.47160  -3.64290    38    44    39    25
 C     1.83490  -0.45120  -3.59720    39    38    40    41
 C     3.00740  -0.78810  -2.92310    40    54    24    39
 C     1.36860   0.90510  -3.60730    41    39    42    47
 C     2.22070   1.86070  -2.95120    42    43    41    53
 C     1.57950   2.98950  -2.42890    43    55    49    42
 C    -0.43280  -1.24820  -3.75440    44    38    46    51
 C    -2.26540   0.09990  -3.46150    45    46    67    52
 C    -0.94300   0.03040  -3.83840    46    45    44    47
 C    -0.06990   1.14890  -3.71040    47    46    48    41
 C    -0.65870   2.32210  -3.09890    48    49    68    47
 C     0.20660   3.17910  -2.46580    49    48    43    63
 C    -2.38660  -2.19240  -2.66300    50    51    52    31
 C    -1.12570  -2.30360  -3.15390    51    29    50    44
 C    -2.99880  -0.98020  -2.95110    52    83    50    45
 C     3.43150   1.47320  -2.27310    53    54    57    42
 C     3.76960   0.13900  -2.27120    54    40    53     3
 C     2.05210   3.66490  -1.33370    55    56    58    43
 C     3.14110   3.24110  -0.66540    56    55    57    59
 C     3.82480   2.17110  -1.11990    57    56     1    53
 C     0.98470   4.16700  -0.66020    58    61    63    55
 C     3.13830   3.23940   0.70110    59    60     7    56
 C     2.04150   3.65580   1.35790    60    59    61    16
 C     0.97610   4.15970   0.69240    61    64    58    60
 C    -1.39660   3.78300  -0.71290    62    63    66    65
 C    -0.16180   3.90920  -1.33450    63    58    62    49
 C    -0.16590   3.89320   1.36530    64    61    65    87
 C    -1.40280   3.77760   0.74310    65    64    72    62
 C    -2.37380   3.08340  -1.43820    66    69    62    68
 C    -2.80540   1.24750  -2.92530    67    76    45    68
 C    -2.01380   2.35340  -2.64370    68    67    48    66
 C    -3.45460   2.61480  -0.68630    69    78    71    66
 C    -4.25110   1.55820   1.09230    70    73    77    71
 C    -3.46390   2.61820   0.70900    71    70    72    69
 C    -2.38370   3.07970   1.45870    72    71    65    75
 C    -3.89710   0.85390   2.18510    73    70    79    74
 C    -2.80690   1.22390   2.92530    74    73    90    75
 C    -2.01830   2.34150   2.65740    75    74    88    72
 C    -3.89730   0.87620  -2.18920    76    78    67    83
 C    -4.74700   0.90460   0.00100    77    78    70    81
 C    -4.24550   1.56120  -1.08010    78    76    77    69
 C    -4.00310  -0.50980   2.18540    79    85    80    73
 C    -4.42870  -1.16780   1.07970    80    79    81    37
 C    -4.83290  -0.46950  -0.01410    81    82    80    77
 C    -4.42890  -1.16520  -1.10950    82    83    81    30
 C    -4.00620  -0.49240  -2.20460    83    52    82    76
 C    -1.12050  -2.32140   3.12700    84    32    86    92
 C    -2.99220  -0.99670   2.93670    85    79    86    90
 C    -2.38540  -2.21010   2.63440    86    84    85    35
 C     0.20040   3.15960   2.49740    87    88    16    64
 C    -0.66660   2.29670   3.12240    88    87    75    89
 C    -0.07750   1.11540   3.72320    89    91    88    18
 C    -2.26870   0.08110   3.46730    90    91    74    85
 C    -0.95090  -0.00320   3.84520    91    90    92    89
 C    -0.43620  -1.27490   3.75300    92    21    91    84
