    92
C92-Cs-21                                                                       
 C    -2.54920   2.68040  -2.08210     1     2     8    60
 C    -3.30270   1.56560  -2.09770     2     1     3     7
 C    -4.12280   1.41760  -0.97130     3     4    57     2
 C    -4.58730   0.21540  -0.60830     4     3     5    12
 C    -4.32310  -0.86730  -1.36280     5     4    13     6
 C    -3.39440  -0.77730  -2.39530     6    23     7     5
 C    -2.80580   0.41150  -2.78510     7     6     2    20
 C    -1.34150   2.72430  -2.73840     8    62     1     9
 C    -0.71310   1.58680  -3.31040     9     8    20    19
 C    -4.30990  -1.04170   1.34030    10    12    11    27
 C    -4.23550  -2.17120   0.59260    11    10    15    13
 C    -4.56760   0.14160   0.76180    12    10    26     4
 C    -4.22900  -2.08470  -0.78680    13     5    14    11
 C    -3.32380  -2.78390  -1.50800    14    17    13    23
 C    -3.32320  -2.96600   1.20700    15    16    11    28
 C    -2.56700  -3.78550   0.46940    16    15    41    17
 C    -2.56370  -3.69730  -0.91050    17    14    92    16
 C     1.33930   2.73630  -2.74580    18    63    71    19
 C     0.71860   1.59120  -3.31480    19    18    85     9
 C    -1.45370   0.36580  -3.32800    20     9     7    21
 C    -0.72500  -0.90690  -3.37900    21    22    86    20
 C    -1.41620  -2.10340  -2.92960    22    23    91    21
 C    -2.74510  -1.97970  -2.48130    23     6    14    22
 C    -3.17870   1.32770   2.33040    24    26    43    25
 C    -2.76250   0.03920   2.86790    25    27    31    24
 C    -4.06200   1.30100   1.23850    26    12    57    24
 C    -3.37760  -1.09580   2.35800    27    28    10    25
 C    -2.74070  -2.31630   2.28450    28    27    15    29
 C    -1.41350  -2.53580   2.69910    29    28    39    30
 C    -0.71610  -1.42900   3.29550    30    29    31    34
 C    -1.43930  -0.16510   3.37940    31    32    25    30
 C    -0.68540   0.98430   3.46500    32    31    42    36
 C     1.44080  -2.52810   2.68930    33    37    38    34
 C     0.74500  -1.42300   3.29040    34    33    35    30
 C     1.45970  -0.15790   3.37200    35    36    53    34
 C     0.69960   0.98850   3.46330    36    35    32    48
 C     2.76810  -2.30440   2.26370    37    52    79    33
 C     0.71600  -3.55700   2.01220    38    39    40    33
 C    -0.68840  -3.55650   2.01490    39    38    41    29
 C     1.35760  -4.11600   0.87430    40    78    83    38
 C    -1.32770  -4.11110   0.87430    41    16    81    39
 C    -1.11370   2.22810   3.03240    42    45    32    43
 C    -2.32900   2.44760   2.38500    43    42    24    44
 C    -2.31700   3.48130   1.37880    44    47    56    43
 C     0.00420   2.97400   2.80480    45    46    42    48
 C    -0.00530   3.97270   1.91850    46    45    47    49
 C    -1.14200   4.22510   1.19740    47    46    58    44
 C     1.12690   2.23420   3.03440    48    45    36    51
 C     1.13450   4.22500   1.19310    49    61    46    50
 C     2.31410   3.48100   1.37320    50    49    67    51
 C     2.33540   2.45290   2.38140    51    48    54    50
 C     3.40370  -1.07860   2.34070    52    37    74    53
 C     2.78170   0.05160   2.85530    53    52    35    54
 C     3.19030   1.34120   2.31920    54    51    55    53
 C     4.06900   1.31270   1.22280    55    75    66    54
 C    -3.08450   3.24700   0.20910    56    57    60    44
 C    -3.91660   2.18060   0.18140    57    56    26     3
 C    -0.68090   4.67850  -0.01360    58    59    61    47
 C    -1.35660   4.26740  -1.11730    59    60    58    62
 C    -2.50790   3.58670  -1.01410    60    59    56     1
 C     0.68630   4.68590  -0.02070    61    64    58    49
 C    -0.66250   3.77160  -2.18310    62    63    59     8
 C     0.66440   3.77960  -2.18010    63    62    18    64
 C     1.36620   4.28440  -1.12150    64    65    61    63
 C     2.51690   3.60240  -1.02760    65    64    67    71
 C     3.91430   2.18470   0.15950    66    67    55    69
 C     3.08310   3.25240   0.20020    67    66    65    50
 C     4.60120   0.23850  -0.61970    68    69    72    75
 C     4.13300   1.43470  -0.99880    69    68    66    70
 C     3.30630   1.58870  -2.11990    70    71    69    84
 C     2.55420   2.70030  -2.10360    71    70    18    65
 C     4.33190  -0.84830  -1.36800    72    68    76    87
 C     4.26330  -2.16110   0.59300    73    74    79    76
 C     4.34730  -1.02630   1.33100    74    75    73    52
 C     4.59250   0.15450   0.75090    75    74    55    68
 C     4.23960  -2.06460  -0.78730    76    72    80    73
 C     2.58670  -3.68400  -0.89830    77    80    82    78
 C     2.60140  -3.79480   0.48130    78    79    40    77
 C     3.36150  -2.97250   1.20120    79    78    73    37
 C     3.33350  -2.76590  -1.50660    80    77    76    88
 C    -0.62790  -4.38690  -0.26980    81    83    41    92
 C     1.35440  -3.94100  -1.36630    82    77    83    90
 C     0.65930  -4.38090  -0.27330    83    81    82    40
 C     2.81660   0.42260  -2.79260    84    87    70    85
 C     1.46220   0.37270  -3.33350    85    19    84    86
 C     0.73760  -0.90260  -3.38090    86    89    21    85
 C     3.40410  -0.76420  -2.40170    87    88    84    72
 C     2.75530  -1.96720  -2.48390    88    87    80    89
 C     1.42720  -2.09860  -2.93200    89    88    90    86
 C     0.70630  -3.21400  -2.40620    90    91    82    89
 C    -0.69140  -3.22010  -2.40230    91    90    92    22
 C    -1.33120  -3.95470  -1.36540    92    17    81    91
