    92
C92-D2-81                                                                       
 C    -2.65070  -0.32430   3.24240     1    14     2    54
 C    -3.62520   0.08620   2.35880     2     1     3     7
 C    -4.05540  -0.91980   1.49190     3     4    53     2
 C    -4.42850  -0.63230   0.19980     4     5    23     3
 C    -4.42880   0.63600  -0.21220     5     4     8    18
 C    -2.56370   2.32740   2.41270     6     9    12     7
 C    -3.59510   1.43940   1.93360     7     8     2     6
 C    -4.06110   1.65920   0.62190     8    11     5     7
 C    -2.14310   3.34470   1.55010     9    92    10     6
 C    -2.64150   3.46380   0.26340    10    11    39     9
 C    -3.56580   2.62600  -0.19500    11    10     8    21
 C    -1.56760   1.87080   3.32230    12    14     6    13
 C    -0.22580   2.42100   3.31900    13    15    91    12
 C    -1.68900   0.53120   3.71680    14    60     1    12
 C     0.81940   1.56910   3.71410    15    59    87    13
 C    -2.64310   0.32610  -3.25080    16    29    17    19
 C    -3.62080  -0.08240  -2.36960    17    16    18    22
 C    -4.05430   0.92380  -1.50490    18     5    21    17
 C    -2.09930   1.62440  -3.24460    19    35    20    16
 C    -2.49520   2.59330  -2.34930    20    19    21    40
 C    -3.51790   2.19660  -1.49780    21    11    18    20
 C    -3.59110  -1.43500  -1.94300    22    23    17    25
 C    -4.05950  -1.65550  -0.63240    23    24     4    22
 C    -3.56380  -2.62700   0.17930    24    27    23    53
 C    -2.55950  -2.32490  -2.41750    25    26    30    22
 C    -2.13970  -3.34230  -1.55260    26    46    27    25
 C    -2.63350  -3.46620  -0.26380    27    24    43    26
 C    -0.60630   0.24560  -4.03860    28    31    35    29
 C    -1.68430  -0.53610  -3.71890    29    28    16    30
 C    -1.55760  -1.87650  -3.32540    30    29    25    33
 C     0.61980  -0.25410  -4.03020    31    28    36    32
 C     0.82100  -1.56740  -3.70160    32    31    67    33
 C    -0.21920  -2.42690  -3.31240    33    32    45    30
 C     0.22630   2.40950  -3.31830    34    35    38    37
 C    -0.81290   1.55760  -3.71280    35    28    19    34
 C     1.69680   0.52310  -3.70690    36    31    75    37
 C     1.57070   1.86830  -3.32060    37    36    80    34
 C    -0.15230   3.41840  -2.38980    38    41    34    40
 C    -1.65920   3.93550  -0.56540    39    84    10    40
 C    -1.50420   3.50110  -1.90000    40    39    20    38
 C     0.87110   3.83630  -1.53860    41    79    86    38
 C     0.60920  -4.24020   0.25200    42    44    47    49
 C    -1.66650  -3.94310   0.57670    43    44    27    51
 C    -0.62260  -4.24520  -0.23690    44    42    43    46
 C     0.15750  -3.43600  -2.38630    45    46    33    48
 C    -0.86360  -3.85800  -1.54020    46    26    44    45
 C     1.65970  -3.92480  -0.54900    47    42    62    48
 C     1.50730  -3.50370  -1.89060    48    68    47    45
 C     0.85570  -3.84720   1.55740    49    63    42    50
 C    -0.16460  -3.42430   2.40880    50    49    56    51
 C    -1.51370  -3.50770   1.91240    51    43    52    50
 C    -2.50310  -2.59420   2.34510    52    54    53    51
 C    -3.51920  -2.19320   1.48530    53    24     3    52
 C    -2.10860  -1.62380   3.23990    54    57    52     1
 C     1.55610  -1.86290   3.34010    55    58    66    56
 C     0.21450  -2.41210   3.33100    56    57    50    55
 C    -0.82340  -1.55180   3.71740    57    60    54    56
 C     1.68590  -0.51820   3.72650    58    59    74    55
 C     0.60610   0.25910   4.05210    59    60    15    58
 C    -0.61580  -0.24450   4.05220    60    59    57    14
 C     3.55330  -2.61660  -0.16410    61    62    64    69
 C     2.62590  -3.45320   0.29150    62    61    47    63
 C     2.13710  -3.33670   1.57720    63    49    62    66
 C     4.06050  -1.64670   0.64850    64    61    70    65
 C     3.58830  -1.43480   1.96230    65    64    73    66
 C     2.55890  -2.32020   2.43940    66    63    55    65
 C     2.11210  -1.63100  -3.23130    67    32    68    75
 C     2.49640  -2.59340  -2.32660    68    67    69    48
 C     3.51340  -2.18210  -1.46850    69    61    77    68
 C     4.43780  -0.62960  -0.19520    70    71    64    77
 C     4.43640   0.63640   0.21770    71    70    82    72
 C     4.05550   0.91670   1.51050    72    71    88    73
 C     3.61700  -0.08090   2.38500    73    74    72    65
 C     2.64810   0.34490   3.26280    74    58    73    87
 C     2.66110  -0.33510  -3.24240    75    36    76    67
 C     3.63580   0.08070  -2.36290    76    75    77    83
 C     4.06700  -0.91710  -1.48900    77    70    69    76
 C     2.63990   3.45720  -0.26350    78    81    85    79
 C     2.15180   3.33220  -1.55480    79    41    78    80
 C     2.57530   2.31770  -2.42000    80    79    37    83
 C     3.56520   2.61380   0.18420    81    78    82    88
 C     4.07600   1.65200  -0.62870    82    81    71    83
 C     3.60830   1.43500  -1.94010    83    82    76    80
 C    -0.61470   4.24780   0.23800    84    86    39    92
 C     1.66750   3.93830   0.57230    85    86    78    90
 C     0.62370   4.23850  -0.23740    86    84    85    41
 C     2.11040   1.64100   3.25300    87    15    89    74
 C     3.50910   2.19180   1.49370    88    81    72    89
 C     2.49040   2.60660   2.35110    89    87    88    90
 C     1.50220   3.51580   1.90940    90    85    89    91
 C     0.15060   3.43670   2.39540    91    92    13    90
 C    -0.86640   3.85830   1.54230    92     9    84    91
