    92
C92-C2-65                                                                       
 C    -1.65560   3.61980   1.59610     1     6     2    56
 C    -2.44680   2.68820   2.21480     2     1     3     9
 C    -3.54680   2.25040   1.47040     3     4    55     2
 C    -4.07120   1.00880   1.62600     4     5     3    32
 C    -3.51550   0.16360   2.51060     5     4    18    10
 C    -0.32940   3.75620   1.88620     6     1    61     7
 C     0.36340   2.93520   2.79040     7     6    14     8
 C    -0.39130   1.86240   3.39620     8     9     7    12
 C    -1.79890   1.78710   3.11990     9    10     2     8
 C    -2.39150   0.52930   3.22810    10    25     5     9
 C     1.68440   0.61050   3.49630    11    26    13    12
 C     0.31430   0.63350   3.72970    12    11    24     8
 C     2.38620   1.67160   2.94330    13    14    11    92
 C     1.75400   2.82350   2.55210    14    13    15     7
 C     2.34490   3.42400   1.42950    15    60    90    14
 C    -3.39150  -2.85870   0.70540    16    33    17    21
 C    -4.04130  -1.71460   1.12120    17    16    18    31
 C    -3.50810  -1.17470   2.29020    18     5    19    17
 C    -2.39010  -1.67980   2.93560    19    20    25    18
 C    -1.76020  -2.82970   2.53480    20    19    21    29
 C    -2.33350  -3.41920   1.39900    21    23    16    20
 C    -0.27530  -4.27560   0.74660    22    23    42    30
 C    -1.56260  -4.08260   0.49190    23    22    21    36
 C    -0.32210  -0.65660   3.73190    24    25    12    28
 C    -1.69000  -0.62950   3.50410    25    10    19    24
 C     2.38610  -0.54980   3.22850    26    85    11    27
 C     1.78810  -1.80650   3.12020    27    26    88    28
 C     0.38140  -1.88410   3.39300    28    27    29    24
 C    -0.36890  -2.95420   2.77680    29    30    20    28
 C     0.33130  -3.77170   1.87590    30    89    22    29
 C    -4.52990  -0.82440   0.13160    31    32    35    17
 C    -4.55340   0.53500   0.42590    32     4    45    31
 C    -3.15330  -3.13290  -0.62460    33    34    36    16
 C    -3.50980  -2.23010  -1.54500    34    33    35    37
 C    -4.21090  -1.11300  -1.20030    35    34    43    31
 C    -2.01130  -3.84310  -0.78300    36    33    23    39
 C    -2.65730  -1.95930  -2.59450    37    47    34    38
 C    -1.44090  -2.61720  -2.78390    38    37    49    39
 C    -1.11420  -3.67030  -1.85380    39    41    36    38
 C     1.19840  -3.31540  -2.29170    40    41    84    48
 C     0.22630  -3.98000  -1.58320    41    40    39    42
 C     0.62360  -4.31710  -0.27640    42    22    81    41
 C    -3.87220  -0.13340  -2.10970    43    44    35    47
 C    -3.92930   1.19690  -1.79190    44    43    46    45
 C    -4.30240   1.53060  -0.49900    45    55    32    44
 C    -2.97630   1.98820  -2.39490    46    53    44    52
 C    -2.87350  -0.65330  -2.94540    47    37    51    43
 C     0.88920  -2.27000  -3.15410    48    66    49    40
 C    -0.40600  -1.83740  -3.40720    49    48    38    50
 C    -0.58160  -0.43030  -3.73610    50    51    49    68
 C    -1.86540   0.12930  -3.49560    51    52    47    50
 C    -1.97810   1.47960  -3.21680    52    70    51    46
 C    -2.47550   3.11360  -1.78380    53    46    57    54
 C    -2.84750   3.44530  -0.48980    54    55    56    53
 C    -3.73200   2.61450   0.14020    55    54    45     3
 C    -1.84380   3.99560   0.25910    56    54    59     1
 C    -1.20030   3.33940  -2.27500    57    58    53    70
 C    -0.22160   3.99200  -1.56520    58    57    64    59
 C    -0.61370   4.31780  -0.25390    59    61    56    58
 C     1.56630   4.08810   0.52440    60    61    15    65
 C     0.27980   4.28070   0.76780    61    60    59     6
 C     2.66190   1.98810  -2.56480    62    71    73    63
 C     1.44340   2.63890  -2.76290    63    62    69    64
 C     1.12410   3.68480  -1.82270    64    58    65    63
 C     2.02180   3.84700  -0.74830    65    74    60    64
 C     1.98370  -1.44430  -3.20930    66    48    67    77
 C     1.86000  -0.09060  -3.48370    67    66    71    68
 C     0.57840   0.46920  -3.73030    68    67    69    50
 C     0.40450   1.87460  -3.39700    69    70    63    68
 C    -0.88830   2.30890  -3.15290    70    52    69    57
 C     2.87380   0.68120  -2.91980    71    62    67    80
 C     4.22320   1.13350  -1.18120    72    73    80    76
 C     3.52400   2.25530  -1.51930    73    74    72    62
 C     3.17080   3.14670  -0.58790    74    73    65    90
 C     4.54250  -0.52900   0.42730    75    86    78    76
 C     4.53460   0.83460   0.15290    76    75    72    91
 C     2.98410  -1.96890  -2.39880    77    84    79    66
 C     4.29120  -1.51820  -0.50300    78    75    82    79
 C     3.92800  -1.17200  -1.79700    79    80    77    78
 C     3.87710   0.15810  -2.09670    80    79    72    71
 C     1.85380  -4.00600   0.24670    81    83    42    89
 C     3.72110  -2.60930   0.12880    82    83    78    87
 C     2.84080  -3.44230  -0.51280    83    81    82    84
 C     2.47540  -3.09720  -1.80220    84    77    83    40
 C     3.50710  -0.17850   2.51230    85    86    92    26
 C     4.05350  -1.02080   1.61740    86    85    87    75
 C     3.53350  -2.26460   1.46530    87    86    82    88
 C     2.43560  -2.70700   2.21110    88    89    87    27
 C     1.65580  -3.64140   1.58610    89    30    88    81
 C     3.41140   2.87680   0.74320    90    91    74    15
 C     4.05040   1.72230   1.14320    91    90    92    76
 C     3.51080   1.16550   2.30050    92    85    13    91
