    92
C92-C1-47                                                                       
 C     1.39620  -3.31160   2.14960     1     2     8    54
 C     2.36430  -2.40920   2.47630     2     1     3     7
 C     3.43100  -2.33370   1.56550     3     4    53     2
 C     4.14490  -1.19560   1.39500     4     5     3    26
 C     3.85430  -0.12180   2.13550     5     4    12     6
 C     2.78350  -0.14950   3.02000     6    23     5     7
 C     1.95480  -1.25460   3.21610     7     6     2    19
 C     0.10300  -3.16070   2.56750     8     1    59     9
 C    -0.38340  -2.03450   3.27860     9     8    18    19
 C     3.80700   2.48450  -0.23700    10    27    16    11
 C     4.40910   1.35630   0.31670    11    10    12    25
 C     4.01770   1.13790   1.64570    12     5    13    11
 C     3.12200   1.93440   2.31540    13    15    12    23
 C     1.37160   3.43500   2.14970    14    15    39    24
 C     2.62190   3.07430   1.75430    15    14    13    16
 C     2.96310   3.33570   0.44190    16    10    15    38
 C    -2.51510  -2.62870   2.27640    17    87    58    18
 C    -1.77350  -1.75230   3.12490    18     9    17    90
 C     0.56410  -1.00990   3.58370    19     9     7    21
 C    -1.34610   0.65780   3.50000    20    90    91    21
 C     0.07530   0.36230   3.70790    21    22    19    20
 C     1.02740   1.41550   3.48490    22    24    23    21
 C     2.33910   1.12830   3.14980    23     6    22    13
 C     0.60080   2.64200   3.01170    24    92    22    14
 C     4.61230   0.21330  -0.49120    25    26    29    11
 C     4.51720  -1.05390   0.07610    26     4    43    25
 C     3.33460   2.47920  -1.52650    27    28    30    10
 C     3.45420   1.37630  -2.26940    28    27    29    31
 C     4.10300   0.27050  -1.79600    29    28    41    25
 C     2.22860   3.27560  -1.65910    30    27    38    33
 C     2.44420   1.01090  -3.12300    31    45    28    32
 C     1.27830   1.75100  -3.29690    32    31    47    33
 C     1.17300   2.98810  -2.54240    33    30    36    32
 C    -1.57440   4.09760  -0.37930    34    78    86    35
 C    -0.29260   4.19780  -0.94890    35    34    40    36
 C    -0.09060   3.50950  -2.20000    36    37    33    35
 C    -1.18590   2.82540  -2.72300    37    79    46    36
 C     2.02430   3.87730  -0.43130    38    40    30    16
 C     0.50080   4.10380   1.32830    39    82    14    40
 C     0.78000   4.29960  -0.03420    40    38    39    35
 C     3.54160  -0.81540  -2.43420    41    42    29    45
 C     3.50940  -2.05680  -1.85740    42    41    44    43
 C     4.01830  -2.16600  -0.57270    43    26    53    42
 C     2.41310  -2.83050  -2.16910    44    51    42    50
 C     2.49250  -0.35280  -3.23660    45    31    49    41
 C    -1.08230   1.61970  -3.40220    46    47    64    37
 C     0.11820   0.99720  -3.66980    47    46    32    48
 C     0.11310  -0.45670  -3.74220    48    49    47    66
 C     1.35800  -1.10120  -3.51470    49    50    45    48
 C     1.37520  -2.37690  -2.97980    50    68    49    44
 C     1.87360  -3.73200  -1.28620    51    44    55    52
 C     2.36300  -3.81660   0.00830    52    53    54    51
 C     3.40530  -3.00120   0.34490    53    52    43     3
 C     1.39440  -4.02950   0.94860    54    57    52     1
 C     0.53420  -3.88940  -1.59900    55    56    51    68
 C    -0.41110  -4.24930  -0.66760    56    55    57    62
 C     0.09350  -4.29770   0.64100    57    59    54    56
 C    -1.93130  -3.61270   1.52700    58    59    17    63
 C    -0.66430  -3.87980   1.68560    59    58    57     8
 C    -3.22090  -2.22750  -1.86830    60    71    69    61
 C    -2.07980  -3.02250  -2.00620    61    60    67    62
 C    -1.74480  -3.86470  -0.87740    62    56    63    61
 C    -2.52770  -3.67710   0.28020    63    72    58    62
 C    -2.26040   0.92500  -3.21600    64    46    65    74
 C    -2.30700  -0.45950  -3.23150    65    64    69    66
 C    -1.11880  -1.19930  -3.46370    66    65    67    48
 C    -1.04340  -2.52380  -2.86670    67    68    61    66
 C     0.22190  -3.04100  -2.64930    68    50    67    55
 C    -3.33930  -0.98730  -2.46260    69    60    65    76
 C    -4.55890  -0.95850  -0.60460    70    71    76    73
 C    -4.00520  -2.19370  -0.73540    71    72    70    60
 C    -3.59990  -2.87060   0.35430    72    63    71    87
 C    -4.62930  -0.37610   0.63370    73    80    88    70
 C    -3.11090   1.70530  -2.43700    74    79    75    64
 C    -4.06180   1.16500  -1.58800    75    76    74    81
 C    -4.19750  -0.20060  -1.68000    76    70    75    69
 C    -3.46260   2.90500  -0.04310    77    81    78    85
 C    -2.62230   3.46960  -0.97910    78    79    34    77
 C    -2.42960   2.84710  -2.14980    79    78    74    37
 C    -4.41780   0.95360   0.78130    80    73    81    83
 C    -4.21590   1.78440  -0.31230    81    77    80    75
 C    -0.74870   3.85680   1.78240    82    86    39    92
 C    -3.71900   1.12500   1.98920    83    84    89    80
 C    -2.89820   2.18800   2.21640    84    83    85    91
 C    -2.87160   3.14250   1.18700    85    86    77    84
 C    -1.78820   3.91990   0.96730    86    82    85    34
 C    -3.61930  -2.24960   1.58220    87    88    17    72
 C    -4.09390  -1.01300   1.71540    88    87    73    89
 C    -3.45030  -0.11290   2.52720    89    88    83    90
 C    -2.26010  -0.41280   3.23790    90    89    18    20
 C    -1.72630   1.98350   3.01530    91    92    84    20
 C    -0.70960   2.90470   2.78700    92    24    82    91
