    92
C92-C2v-35                                                                      
 C    -0.68240   3.27290   2.40940     1     2    48     8
 C     0.67870   3.26920   2.40470     2     1    51     6
 C     4.06490   2.20010   0.66580     3     4    66     7
 C     3.12860   2.91860   1.33920     4     3     5    52
 C     2.30600   3.81140   0.69510     5     6     4    20
 C     1.10790   4.04470   1.32480     6    13     5     2
 C     4.07490   2.19380  -0.70700     7    90    19     3
 C    -1.12490   4.05130   1.33370     8    13     9     1
 C    -2.31810   3.81460   0.70090     9     8    10    16
 C    -3.13460   2.91790   1.34830    10    11     9    43
 C    -4.06250   2.19010   0.67230    11    10    23    12
 C    -4.07170   2.18150  -0.69970    12    24    17    11
 C    -0.00810   4.44310   0.66650    13     6    14     8
 C    -0.00100   4.43020  -0.69060    14    18    13    15
 C    -1.12030   4.02840  -1.35020    15    14    16    28
 C    -2.32100   3.80430  -0.72320    16    17    15     9
 C    -3.13940   2.91010  -1.36460    17    12    16    30
 C     1.11260   4.03380  -1.35680    18    14    20    85
 C     3.13740   2.91680  -1.37010    19     7    20    83
 C     2.31300   3.80750  -0.72900    20    19    18     5
 C    -4.60590  -0.08610   0.67080    21    23    36    22
 C    -4.62660  -0.08840  -0.70040    22    24    26    21
 C    -4.25370   1.02350   1.34400    23    21    11    42
 C    -4.27880   1.02050  -1.36930    24    22    12    31
 C    -2.57690  -2.54270  -2.20560    25    27    80    38
 C    -4.21310  -1.29960  -1.12640    26    22    37    27
 C    -3.35150  -1.42290  -2.23380    27    25    26    33
 C    -0.67930   3.25800  -2.42990    28    85    29    15
 C    -1.40870   2.20410  -2.95420    29    28    30    77
 C    -2.69130   2.11760  -2.43710    30    31    29    17
 C    -3.38380   0.94090  -2.41910    31    30    24    33
 C    -1.47010  -0.21750  -3.41280    32    79    77    33
 C    -2.82810  -0.25410  -2.87620    33    31    27    32
 C    -2.56470  -2.53130   2.20040    34    35    44    40
 C    -3.33920  -1.41200   2.21440    35    34    36    41
 C    -4.19440  -1.29190   1.10370    36    21    37    35
 C    -4.07330  -2.12200  -0.00610    37    39    36    26
 C    -2.56900  -3.46810  -1.15500    38    59    39    25
 C    -3.25770  -3.19970   0.00600    39    37    40    38
 C    -2.55770  -3.46780   1.15960    40    61    39    34
 C    -2.81710  -0.24160   2.85330    41    42    35    46
 C    -3.36270   0.95590   2.39580    42    43    23    41
 C    -2.68220   2.13680   2.42670    43    42    48    10
 C    -1.33070  -2.55180   2.79760    44    53    34    45
 C    -0.70600  -1.42160   3.38100    45    44    46    56
 C    -1.46240  -0.21000   3.39960    46    45    47    41
 C    -0.72810   1.04480   3.43800    47    48    46    50
 C    -1.40260   2.21770   2.94350    48    43     1    47
 C     1.47380  -0.20690   3.39590    49    56    50    57
 C     0.73420   1.04490   3.43370    50    51    49    47
 C     1.40780   2.21590   2.93130    51    52     2    50
 C     2.68500   2.12830   2.41180    52    58    51     4
 C    -0.64770  -3.57920   2.20080    53    54    61    44
 C     0.67650  -3.58000   2.20410    54    53    75    55
 C     1.35680  -2.55310   2.80620    55    62    54    56
 C     0.72750  -1.42430   3.38040    56    55    49    45
 C     2.82840  -0.23710   2.84690    57    58    63    49
 C     3.37860   0.95550   2.38140    58    52    66    57
 C    -1.35540  -4.10360  -1.14710    59    38    71    60
 C    -0.68510  -4.53150   0.00210    60    61    59    74
 C    -1.35270  -4.10920   1.15300    61    40    53    60
 C     2.58620  -2.53200   2.20080    62    63    55    67
 C     3.35500  -1.40830   2.21030    63    62    64    57
 C     4.21090  -1.28380   1.09910    64    65    70    63
 C     4.62620  -0.07820   0.66390    65    66    64    89
 C     4.27600   1.03230   1.33280    66    65     3    58
 C     2.58820  -3.46480   1.15680    67    75    69    62
 C     2.57930  -3.45470  -1.16310    68    73    69    91
 C     3.27820  -3.18680  -0.00320    69    70    67    68
 C     4.08890  -2.10510  -0.01730    70    69    64    88
 C    -0.65660  -3.57140  -2.19980    71    72    80    59
 C     0.66640  -3.57620  -2.19310    72    71    73    81
 C     1.37310  -4.10260  -1.14540    73    72    68    74
 C     0.71820  -4.52960   0.00960    74    75    73    60
 C     1.38250  -4.11020   1.15790    75    67    54    74
 C     0.73460   1.03110  -3.45240    76    84    87    77
 C    -0.72890   1.03260  -3.45270    77    29    32    76
 C     0.71960  -1.43090  -3.38370    78    81    87    79
 C    -0.71710  -1.43130  -3.38620    79    80    32    78
 C    -1.34540  -2.55810  -2.80670    80    71    25    79
 C     1.35410  -2.55570  -2.79990    81    91    72    78
 C     3.38920   0.95130  -2.40990    82    83    90    86
 C     2.68810   2.12660  -2.44310    83    82    84    19
 C     1.40560   2.20930  -2.95780    84    85    83    76
 C     0.67860   3.26280  -2.43770    85    28    84    18
 C     2.83530  -0.24670  -2.87140    86    82    92    87
 C     1.47750  -0.21760  -3.40980    87    78    76    86
 C     4.23370  -1.28800  -1.13700    88    89    70    92
 C     4.64890  -0.07880  -0.70920    89    90    88    65
 C     4.30020   1.03210  -1.37000    90    89     7    82
 C     2.59180  -2.53480  -2.21700    91    92    81    68
 C     3.36620  -1.41970  -2.23780    92    91    88    86
