    92
C92-Cs-15                                                                       
 C     1.92750   3.62710  -0.70370     1     6     2    59
 C     2.79530   2.87290  -1.44670     2     1     3    10
 C     3.81850   2.30240  -0.69550     3     4     2    44
 C     4.43050   1.14440  -1.08330     4     5    14     3
 C     3.94070   0.49480  -2.17150     5     4    15    11
 C     0.66780   3.89610  -1.13060     6     1    63     8
 C    -1.25240   3.25590  -2.26440     7    24     8    64
 C     0.12950   3.33800  -2.29120     8     7     6     9
 C     0.91080   2.38720  -3.01960     9     8    10    26
 C     2.27440   2.21380  -2.60990    10    11     9     2
 C     2.88730   0.99620  -2.89640    11     5    28    10
 C     4.73030  -0.91580   0.00090    12    13    33    14
 C     4.24280  -1.56740  -1.09020    13    15    12    17
 C     4.83910   0.44920   0.01640    14    32     4    12
 C     3.85680  -0.86610  -2.18370    15    13    16     5
 C     2.77880  -1.24110  -2.91930    16    15    19    28
 C     3.47310  -2.63430  -0.68570    17    13    18    34
 C     2.40300  -3.11640  -1.44000    18    17    39    19
 C     2.04300  -2.39130  -2.64960    19    16    22    18
 C    -1.24220  -1.11930  -3.69870    20    29    85    21
 C     0.14520  -1.22330  -3.75030    21    20    27    22
 C     0.72780  -2.39960  -3.13790    22    23    19    21
 C    -0.15100  -3.26610  -2.49330    23    86    38    22
 C    -1.92180   2.26940  -2.93310    24     7    25    89
 C    -1.22600   1.27880  -3.61270    25    24    29    26
 C     0.19910   1.28680  -3.66990    26    25    27     9
 C     0.86790   0.00810  -3.79930    27    28    21    26
 C     2.18730  -0.07570  -3.42090    28    27    11    16
 C    -1.91300   0.07210  -3.64490    29    20    25    92
 C     3.94970   0.52230   2.18100    30    32    31    45
 C     3.85660  -0.84210   2.18140    31    33    35    30
 C     4.44430   1.17300   1.10080    32    30    44    14
 C     4.23190  -1.56270   1.09370    33    31    12    34
 C     3.47250  -2.63770   0.71020    34    33    37    17
 C     2.77000  -1.21520   2.91510    35    31    36    49
 C     2.03940  -2.37240   2.64950    36    35    56    37
 C     2.39900  -3.11650   1.45210    37    34    40    36
 C     0.16890  -3.92630  -1.32720    38    79    23    39
 C     1.41110  -3.81270  -0.71150    39    38    18    40
 C     1.40460  -3.81280   0.73620    40    41    37    39
 C     0.16510  -3.91810   1.35520    41    80    55    40
 C    -1.25510   3.26490   2.23130    42    54    43    61
 C     0.12590   3.35320   2.25880    43    42    60    48
 C     3.83250   2.32350   0.70720    44    32    47     3
 C     2.88460   1.01820   2.89450    45    30    49    46
 C     2.27400   2.24020   2.59670    46    45    48    47
 C     2.80170   2.90120   1.43550    47    59    44    46
 C     0.90640   2.40650   2.99960    48    43    46    51
 C     2.17790  -0.04990   3.41540    49    50    45    35
 C     0.85660   0.03690   3.79140    50    49    57    51
 C     0.18720   1.31380   3.65280    51    53    50    48
 C    -1.91940   0.09390   3.62790    52    58    53    67
 C    -1.23720   1.30170   3.58800    53    54    52    51
 C    -1.92970   2.28280   2.89680    54    42    53    65
 C    -0.15660  -3.24740   2.51580    55    73    41    56
 C     0.72430  -2.37020   3.14670    56    55    36    57
 C     0.13530  -1.19420   3.74800    57    58    50    56
 C    -1.24920  -1.09750   3.69220    58    52    74    57
 C     1.92580   3.64150   0.69540    59    60    47     1
 C     0.66370   3.90920   1.09840    60    59    63    43
 C    -2.04100   3.64480   1.14780    61    62    66    42
 C    -1.46070   4.05960  -0.02420    62    63    64    61
 C    -0.11050   4.18420  -0.01740    63    62    60     6
 C    -2.04650   3.63700  -1.18920    64    62    72     7
 C    -3.14570   2.07340   2.24770    65    68    66    54
 C    -3.20060   2.90210   1.15010    66    65    61    71
 C    -3.14320  -0.12610   2.98390    67    68    76    52
 C    -3.76660   0.84650   2.25580    68    67    65    69
 C    -4.41470   0.45350   1.09480    69    70    68    77
 C    -4.43800   1.27240  -0.01850    70    69    71    90
 C    -3.83300   2.51930  -0.02520    71    72    70    66
 C    -3.20060   2.89400  -1.20000    72    64    89    71
 C    -1.51940  -3.07400   2.48970    73    74    83    55
 C    -2.06290  -2.02170   3.09300    74    73    76    58
 C    -3.80020  -1.88720   1.41520    75    77    76    82
 C    -3.19700  -1.45030   2.60360    76    74    67    75
 C    -4.40640  -0.87640   0.67630    77    87    75    69
 C    -2.06630  -3.55340  -1.33120    78    86    79    81
 C    -1.01300  -4.09750  -0.64920    79    80    78    38
 C    -1.02060  -4.09480   0.67810    80    79    83    41
 C    -3.19690  -2.97220  -0.71070    81    78    88    82
 C    -3.20050  -2.97440   0.72100    82    83    75    81
 C    -2.08160  -3.56080   1.34330    83    80    73    82
 C    -3.18810  -1.46890  -2.61260    84    85    92    88
 C    -2.05350  -2.04600  -3.10010    85    86    84    20
 C    -1.51150  -3.08650  -2.48860    86    85    78    23
 C    -4.41210  -0.88120  -0.70350    87    77    88    90
 C    -3.79830  -1.89570  -1.41950    88    87    84    81
 C    -3.14810   2.06110  -2.29370    89    91    72    24
 C    -4.41910   0.44660  -1.13190    90    70    91    87
 C    -3.76500   0.83370  -2.29380    91    92    89    90
 C    -3.13930  -0.14620  -3.00550    92    91    84    29
