    92
C92-C2-7                                                                        
 C    -2.04220   3.42840   1.32550     1    15    52     2
 C    -2.59060   3.39420   0.04100     2     1     8     3
 C    -3.70950   2.51030  -0.16420     3    70     4     2
 C    -3.83950   1.83990  -1.41500     4     6     5     3
 C    -4.41370   0.56890  -1.47890     5    50     4    19
 C    -2.86160   2.06780  -2.34930     6     9     4    17
 C    -0.25840   4.02280  -0.66970     7    10    13     8
 C    -1.63470   3.67860  -0.96970     8     9     2     7
 C    -1.85280   2.97310  -2.16180     9    12     6     8
 C     0.70820   3.69940  -1.61680    10    11    92     7
 C     0.39490   2.97280  -2.73790    11    12    35    10
 C    -0.83420   2.58860  -2.97610    12    11     9    22
 C     0.24440   4.02990   0.65440    13    15     7    14
 C     1.62620   3.70000   0.95130    14    16    91    13
 C    -0.72230   3.70750   1.59770    15    63     1    13
 C     1.84900   3.00560   2.15070    16    62    87    14
 C    -2.35830   1.06750  -3.20110    17    22    18     6
 C    -2.79840  -0.22210  -3.14950    18    17    19    25
 C    -3.90400  -0.42970  -2.32140    19    20    18     5
 C    -4.11240  -1.62260  -1.69980    20    21    19    38
 C    -3.17030  -2.57830  -1.83890    21    20    39    26
 C    -1.08160   1.37020  -3.55050    22    17    12    23
 C    -0.05960   0.43740  -3.81970    23    22    33    24
 C    -0.41220  -0.94020  -3.64250    24    23    25    28
 C    -1.79560  -1.23600  -3.33960    25    26    18    24
 C    -2.05480  -2.40280  -2.62450    26    21    30    25
 C     2.00560  -1.38090  -3.15380    27    31    32    28
 C     0.65160  -1.84780  -3.22910    28    27    29    24
 C     0.28960  -2.97350  -2.37940    29    30    45    28
 C    -1.04010  -3.17520  -2.10680    30    29    26    40
 C     2.91060  -2.09140  -2.33410    31    44    82    27
 C     2.32160  -0.00010  -3.36640    32    33    34    27
 C     1.27240   0.89530  -3.63990    33    32    35    23
 C     3.46470   0.50610  -2.68430    34    81    86    32
 C     1.43730   2.19920  -3.11460    35    11    84    33
 C    -4.29220  -2.13810   0.59120    36    37    51    38
 C    -3.33890  -3.09170   0.43230    37    39    36    41
 C    -4.71900  -1.40050  -0.49190    38    50    20    36
 C    -2.80370  -3.34840  -0.78030    39    40    37    21
 C    -1.51550  -3.71580  -0.91060    40    39    43    30
 C    -2.49000  -3.07970   1.52050    41    42    37    55
 C    -1.17620  -3.49820   1.45990    42    41    66    43
 C    -0.66920  -3.91990   0.16490    43    46    40    42
 C     2.49870  -3.10390  -1.48840    44    77    45    31
 C     1.18650  -3.51940  -1.42060    45    44    29    46
 C     0.68300  -3.91830  -0.11940    46    43    47    45
 C     1.52320  -3.68910   0.95600    47    78    46    65
 C    -4.74280   0.52650   0.85140    48    50    70    49
 C    -4.29730  -0.21980   1.93210    49    51    54    48
 C    -4.91630  -0.06000  -0.35860    50    48    38     5
 C    -4.04040  -1.53460   1.78630    51    49    36    55
 C    -2.48010   2.58520   2.32410    52    53    60     1
 C    -3.50200   1.77810   2.13430    53    52    70    54
 C    -3.47570   0.52460   2.71350    54    49    53    57
 C    -2.91020  -2.07570   2.37470    55    41    51    56
 C    -2.01000  -1.35630   3.18810    56    55    57    67
 C    -2.32980   0.02420   3.39420    57    59    54    56
 C     0.05730   0.47400   3.82280    58    61    59    68
 C    -1.27950   0.92570   3.65200    59    57    60    58
 C    -1.43970   2.22700   3.11870    60    63    52    59
 C     1.08070   1.40760   3.53630    61    75    62    58
 C     0.82560   2.63020   2.96550    62    63    16    61
 C    -0.40660   3.00130   2.73090    63    62    60    15
 C     1.79460  -1.20030   3.35620    64    69    74    68
 C     1.04730  -3.14330   2.14970    65    66    69    47
 C    -0.28410  -2.94490   2.41880    66    65    42    67
 C    -0.65230  -1.81590   3.26220    67    56    68    66
 C     0.41220  -0.90530   3.66040    68    58    64    67
 C     2.06580  -2.36910   2.65370    69    71    65    64
 C    -4.17600   1.76740   0.94400    70    48    53     3
 C     3.17130  -2.54680   1.86280    71    72    78    69
 C     4.10720  -1.58420   1.70540    72    71    79    73
 C     3.89580  -0.38390   2.32380    73    72    74    88
 C     2.78630  -0.18060   3.15250    74    75    73    64
 C     2.36090   1.11160   3.19030    75    61    74    87
 C     4.31060  -2.14730  -0.56570    76    77    82    79
 C     3.35390  -3.09880  -0.40790    77    78    76    44
 C     2.81840  -3.33170   0.80880    78    77    47    71
 C     4.72530  -1.38550   0.50290    79    83    72    76
 C     4.74380   0.53730  -0.83990    80    83    85    81
 C     4.29870  -0.23050  -1.91110    81    82    34    80
 C     4.05030  -1.54120  -1.76170    82    81    76    31
 C     4.91400  -0.04240   0.37510    83    80    79    88
 C     2.46970   2.58100  -2.32200    84    86    35    92
 C     4.17320   1.77880  -0.94090    85    80    86    90
 C     3.48720   1.76870  -2.12720    86    84    85    34
 C     2.86810   2.11170   2.34060    87    16    89    75
 C     4.42230   0.60950   1.48290    88    83    89    73
 C     3.84760   1.87860   1.40660    89    87    88    90
 C     3.70110   2.54230   0.15540    90    85    89    91
 C     2.57820   3.41800  -0.06400    91    92    14    90
 C     2.03120   3.44400  -1.34270    92    10    84    91
