    92
C92-C1-52                                                                       
 C     1.57850  -2.87400  -2.58170     1     2     4    13
 C     2.78350  -2.64560  -1.96020     2     1     3     7
 C     2.92290  -3.30480  -0.72690     3    54     6     2
 C     0.62380  -3.72920  -2.07090     4    20     1     5
 C     0.73360  -4.35390  -0.82680     5     6     4    25
 C     1.91740  -4.07870  -0.17850     6     5    60     3
 C     3.40300  -1.40020  -2.16460     7     2     8    10
 C     4.20970  -0.94260  -1.09850     8     9    53     7
 C     4.42020   0.37520  -0.83660     9    12     8    35
 C     2.74980  -0.39330  -2.96570    10    11    14     7
 C     3.07860   0.92570  -2.67630    11    17    12    10
 C     3.90860   1.30970  -1.64380    12     9    29    11
 C     0.93040  -1.88470  -3.32440    13    21    14     1
 C     1.43880  -0.61610  -3.51740    14    13    10    15
 C     0.46800   0.44670  -3.71090    15    16    14    23
 C     0.93620   1.75880  -3.39680    16    18    17    15
 C     2.21360   1.96430  -2.88910    17    11    16    30
 C     0.02660   2.72220  -3.01110    18    89    16    31
 C    -1.69510  -3.53150  -1.88560    19    20    82    26
 C    -0.56920  -3.29590  -2.55710    20    19     4    21
 C    -0.42480  -2.14400  -3.29390    21    20    13    22
 C    -1.42600  -1.16690  -3.41160    22    21    23    83
 C    -0.98270   0.17410  -3.63820    23    22    88    15
 C    -0.37270  -4.17770   1.28890    24    59    90    25
 C    -0.45890  -4.48120  -0.07680    25    26    24     5
 C    -1.65980  -4.11480  -0.63740    26    92    25    19
 C     2.55110   3.63450   0.63970    27    36    33    28
 C     3.58460   2.81140   0.19700    28    27    29    34
 C     3.53260   2.52730  -1.17080    29    12    30    28
 C     2.52260   2.98570  -1.98160    30    32    29    17
 C     0.32960   3.73500  -2.09360    31    32    48    18
 C     1.56450   3.84600  -1.52830    32    31    30    33
 C     1.58650   4.17290  -0.18550    33    27    32    47
 C     4.02420   1.78200   1.06700    34    35    38    28
 C     4.47680   0.59270   0.52410    35    52     9    34
 C     1.92830   3.43510   1.84310    36    37    39    27
 C     2.30100   2.40720   2.61050    37    36    38    40
 C     3.33380   1.59670   2.26450    38    37    50    34
 C     0.61870   3.82060   1.78790    39    36    47    42
 C     1.35770   1.70730   3.31770    40    37    61    41
 C     0.00800   2.04150   3.32680    41    40    63    42
 C    -0.39160   3.19280   2.53340    42    39    45    41
 C    -3.02360   3.34860  -0.00410    43    75    80    44
 C    -1.93620   3.87580   0.71720    44    43    49    45
 C    -1.70090   3.28760   2.02120    45    46    42    44
 C    -2.58400   2.29380   2.44270    46    76    45    62
 C     0.40540   4.34620   0.52860    47    49    39    33
 C    -0.82490   4.03330  -1.42120    48    78    31    49
 C    -0.83890   4.32320  -0.04760    49    47    48    44
 C     3.07050   0.35770   2.82630    50    51    38    61
 C     3.56520  -0.81130   2.29600    51    50    52    56
 C     4.30580  -0.64180   1.11460    52    53    35    51
 C     4.24820  -1.58050   0.11880    53    54    52     8
 C     3.59740  -2.71910   0.31160    54    53     3    57
 C     1.53530  -1.91200   3.17090    55    58    65    56
 C     2.80920  -1.98570   2.48820    56    51    57    55
 C     2.93160  -2.97200   1.48670    57    60    54    56
 C     0.59060  -2.88080   2.82940    58    59    67    55
 C     0.80740  -3.84320   1.86910    59    60    24    58
 C     1.94980  -3.85230   1.18070    60    59    57     6
 C     1.83440   0.42140   3.46570    61    40    65    50
 C    -2.18280   1.16570   3.16690    62    63    69    46
 C    -0.88070   0.95730   3.58370    63    62    41    64
 C    -0.42550  -0.41640   3.71030    64    65    66    63
 C     0.99760  -0.67420   3.63500    65    61    55    64
 C    -1.34130  -1.47670   3.33280    66    67    70    64
 C    -0.77310  -2.67280   2.89990    67    58    66    90
 C    -3.97460   0.63400   1.97420    68    71    76    69
 C    -3.04540   0.12560   2.84650    69    68    62    70
 C    -2.66210  -1.21520   2.85700    70    69    66    73
 C    -4.48750  -0.15180   1.00500    71    72    68    77
 C    -4.15430  -1.45800   0.96480    72    71    84    73
 C    -3.29010  -2.08580   1.88450    73    91    72    70
 C    -4.30550   1.61280  -0.51840    74    77    79    75
 C    -3.89720   2.44970   0.49070    75    43    76    74
 C    -3.69110   1.93640   1.72380    76    75    68    46
 C    -4.61480   0.33720  -0.27270    77    74    85    71
 C    -1.82320   3.33810  -2.01340    78    80    48    89
 C    -3.62200   1.91320  -1.66680    79    80    74    87
 C    -2.92520   3.04510  -1.35590    80    78    79    43
 C    -3.39670  -2.77360  -0.80870    81    84    92    82
 C    -2.72360  -2.65430  -2.00200    82    19    81    83
 C    -2.67700  -1.45250  -2.75660    83    86    82    22
 C    -4.13610  -1.76860  -0.38780    84    81    85    72
 C    -4.29150  -0.64130  -1.15570    85    77    84    86
 C    -3.52170  -0.40200  -2.33080    86    83    87    85
 C    -3.14250   0.93850  -2.59150    87    86    79    88
 C    -1.89090   1.22040  -3.24210    88    89    87    23
 C    -1.31350   2.46320  -2.95180    89    18    78    88
 C    -1.38550  -3.51390   1.96940    90    91    24    67
 C    -2.60380  -3.21430   1.41230    91    90    92    73
 C    -2.70610  -3.57100   0.06240    92    81    26    91
