    92
C92-C2-79                                                                       
 C     2.66630  -2.22730   2.38510     1     9     2     4
 C     3.67250  -1.83400   1.51750     2     1     3     7
 C     4.05260  -0.50820   1.67630     3    55     6     2
 C     2.01760  -1.34190   3.25460     4    27     5     1
 C     2.35100  -0.01580   3.35810     5     4     6    23
 C     3.44150   0.35680   2.56660     6    61     3     5
 C     3.70610  -2.44620   0.23270     7     8     2    11
 C     4.11260  -1.57680  -0.80420     8    33    54     7
 C     1.77870  -3.22210   2.08450     9     1    10    13
 C     1.81320  -3.88490   0.86490    10     9    12    11
 C     2.75990  -3.45760  -0.10050    11    31    10     7
 C     0.56460  -4.33960   0.45650    12    29    15    10
 C     0.59660  -2.97030   2.78760    13    14    27     9
 C    -0.62790  -3.43590   2.37610    14    13    15    20
 C    -0.59460  -4.16350   1.18520    15    17    12    14
 C    -2.74300  -3.46330   0.61540    16    17    21    40
 C    -1.63470  -4.12320   0.29650    17    16    15    34
 C    -2.58730  -0.44460   3.12860    18    83    28    19
 C    -1.61500  -1.41560   3.38650    19    18    26    20
 C    -1.77200  -2.67600   2.69950    20    21    14    19
 C    -2.85270  -2.78650   1.80370    21    84    16    20
 C     1.53510   2.20260   3.14610    22    87    60    23
 C     1.31690   0.91760   3.65080    23    22     5    25
 C    -1.09900   1.44620   3.49350    24    28    89    25
 C    -0.04840   0.50010   3.83150    25    23    26    24
 C    -0.33320  -0.92210   3.76010    26    27    19    25
 C     0.73640  -1.77810   3.47330    27     4    13    26
 C    -2.34300   0.91400   3.16040    28    18    24    92
 C     0.18310  -4.33430  -0.86570    29    30    34    12
 C     1.02250  -3.84910  -1.77020    30    29    31    35
 C     2.28430  -3.46590  -1.43330    31    32    30    11
 C     2.62900  -2.51900  -2.34700    32    33    31    44
 C     3.54090  -1.60390  -2.04870    33    32    42     8
 C    -1.15500  -4.13430  -0.98620    34    29    17    37
 C     0.52130  -3.05430  -2.78980    35    44    30    36
 C    -0.82650  -2.73340  -2.93140    36    35    46    37
 C    -1.74040  -3.35450  -2.00430    37    39    34    36
 C    -3.23470  -1.52420  -2.28400    38    39    81    45
 C    -2.94520  -2.71640  -1.66300    39    38    40    37
 C    -3.45480  -2.80610  -0.35710    40    16    79    39
 C     2.01820   1.34200  -3.24920    41    43    50    51
 C     3.44190  -0.34550  -2.55780    42    33    53    43
 C     2.35130   0.01650  -3.35320    43    41    42    48
 C     1.53580  -2.20190  -3.14160    44    35    32    48
 C    -2.33580  -0.90080  -3.15610    45    65    46    38
 C    -1.09590  -1.44060  -3.48930    46    45    36    47
 C    -0.04500  -0.49520  -3.82610    47    48    49    46
 C     1.31840  -0.91620  -3.64530    48    44    43    47
 C    -0.33520   0.92680  -3.75430    49    50    66    47
 C     0.73770   1.78490  -3.46180    50    41    69    49
 C     2.67070   2.22780  -2.38260    51    62    52    41
 C     3.67540   1.83160  -1.51420    52    51    53    57
 C     4.05990   0.50630  -1.66190    53    54    42    52
 C     4.47560  -0.26950  -0.60340    54    55     8    53
 C     4.47350   0.26970   0.61920    55    54    58     3
 C     2.76250   3.44940   0.09320    56    59    64    57
 C     3.71380   2.43700  -0.22650    57    58    52    56
 C     4.12220   1.57770   0.81600    58    61    55    57
 C     2.27780   3.45730   1.42780    59    60    75    56
 C     2.62890   2.52000   2.35140    60    61    59    22
 C     3.54990   1.61610   2.05820    61    60     6    58
 C     1.78500   3.22520  -2.08530    62    51    64    69
 C     0.56780   4.34960  -0.45750    63    74    70    64
 C     1.81100   3.88800  -0.86560    64    63    62    56
 C    -2.58220   0.45720  -3.12530    65    76    45    66
 C    -1.61490   1.43000  -3.38340    66    65    49    67
 C    -1.75990   2.69220  -2.70320    67    68    78    66
 C    -0.62220   3.45460  -2.38150    68    69    70    67
 C     0.60100   2.98670  -2.78890    69    68    50    62
 C    -0.59110   4.17910  -1.18950    70    72    63    68
 C    -2.74180   3.47150  -0.60770    71    72    90    78
 C    -1.63120   4.13320  -0.30110    72    71    70    73
 C    -1.15470   4.13980   0.98340    73    74    72    88
 C     0.18490   4.33630   0.86280    74    75    73    63
 C     1.01420   3.84160   1.77100    75    74    59    87
 C    -3.62380   0.64360  -2.24310    76    77    81    65
 C    -3.72630   1.80060  -1.57230    77    76    78    85
 C    -2.83870   2.79360  -1.80100    78    77    71    67
 C    -4.14300  -1.78060   0.25910    79    80    40    84
 C    -4.46780  -0.59560  -0.36680    80    79    81    86
 C    -4.00510  -0.53450  -1.68540    81    76    38    80
 C    -4.00750   0.53260   1.69830    82    83    92    86
 C    -3.63860  -0.64860   2.25890    83    84    82    18
 C    -3.74830  -1.79560   1.58340    84    83    21    79
 C    -4.13560   1.78780  -0.25230    85    86    77    90
 C    -4.46600   0.60880   0.37600    86    85    82    80
 C     0.52010   3.05240   2.79360    87    22    75    89
 C    -1.74410   3.36150   2.00430    88    91    73    89
 C    -0.82970   2.74060   2.93110    89    87    24    88
 C    -3.45390   2.81980   0.36560    90    71    85    91
 C    -2.95200   2.72090   1.67350    91    92    90    88
 C    -3.24470   1.53110   2.29180    92    91    82    28
