    92
C92-C1-38                                                                       
 C     3.98450  -0.51460   2.03980     1     3     2    15
 C     4.20210   0.77440   1.64890     2     6     4     1
 C     4.14440  -1.52870   1.17050     3     1    14    51
 C     4.54910   1.03600   0.36090     4     2    10    52
 C     1.63160   3.13800   2.22410     5     7    91    17
 C     3.34910   1.59210   2.30890     6     2     7    16
 C     2.84710   2.75320   1.73170     7     5     6     8
 C     3.14730   3.05100   0.37070     8    10     7     9
 C     2.13710   3.70530  -0.41860     9    11    90     8
 C     4.00370   2.12870  -0.26120    10     4    58     8
 C     2.04200   3.26300  -1.75550    11    74    57     9
 C     2.27660  -2.72360   2.17970    12    14    23    13
 C     2.06650  -1.59690   3.07900    13    15    20    12
 C     3.30210  -2.59760   1.22570    14     3    38    12
 C     2.95430  -0.52900   2.94130    15     1    16    13
 C     2.57860   0.77930   3.15560    16    18    15     6
 C     0.90060   2.35430   3.13840    17    31    18     5
 C     1.30710   1.10580   3.56470    18    16    17    19
 C     0.33580   0.09580   3.81420    19    18    20    33
 C     0.76250  -1.27420   3.57350    20    21    13    19
 C    -0.22180  -2.19530   3.27730    21    20    35    22
 C    -0.01830  -3.29670   2.45730    22    25    21    23
 C     1.19370  -3.55130   1.81580    23    22    12    24
 C     1.10250  -4.11600   0.49170    24    27    37    23
 C    -1.23870  -3.62370   1.93360    25    26    28    22
 C    -1.33330  -4.14950   0.70170    26    25    27    46
 C    -0.18830  -4.35310  -0.00220    27    26    39    24
 C    -2.19890  -2.76850   2.38320    28    25    29    35
 C    -3.31670  -2.43920   1.63100    29    30    28    45
 C    -3.82320  -1.18020   1.87650    30    80    29    36
 C    -0.41540   2.67240   3.01140    31    17    84    32
 C    -1.45510   1.78620   3.29920    32    31    87    33
 C    -1.07950   0.45150   3.70590    33    34    32    19
 C    -2.01920  -0.57860   3.42470    34    35    36    33
 C    -1.56360  -1.86630   3.22850    35    34    21    28
 C    -3.20840  -0.28130   2.74990    36    88    30    34
 C     2.07550  -3.76570  -0.46750    37    38    41    24
 C     3.17130  -3.05590  -0.07870    38    37    14    50
 C    -0.53950  -4.11240  -1.30750    39    40    42    27
 C     0.36320  -3.62280  -2.15360    40    39    41    66
 C     1.65690  -3.49000  -1.77570    41    40    48    37
 C    -1.84010  -3.71380  -1.39570    42    39    46    43
 C    -2.24050  -2.75350  -2.33210    43    44    42    65
 C    -3.32240  -2.00820  -1.92210    44    67    43    47
 C    -3.38610  -2.96280   0.31050    45    46    47    29
 C    -2.37480  -3.78930  -0.11690    46    26    45    42
 C    -3.91230  -2.11860  -0.66110    47    81    45    44
 C     2.20400  -2.48380  -2.55140    48    49    41    59
 C     3.31300  -1.78300  -2.15800    49    48    50    54
 C     3.84220  -2.15600  -0.91050    50    51    38    49
 C     4.49330  -1.26470  -0.12530    51    52    50     3
 C     4.66970   0.00740  -0.54010    52    51    55     4
 C     2.32230   0.13580  -3.33830    53    56    61    54
 C     3.41560  -0.43600  -2.58590    54    55    49    53
 C     4.14980   0.42210  -1.73680    55    58    52    54
 C     2.11360   1.50610  -3.15360    56    64    57    53
 C     2.83840   2.27210  -2.26710    57    58    11    56
 C     3.82340   1.74000  -1.56690    58    57    55    10
 C     1.17460  -1.93870  -3.31330    59    66    61    48
 C    -0.16170  -0.01130  -3.85710    60    63    61    69
 C     1.15030  -0.60960  -3.69870    61    59    53    60
 C    -1.40520   2.00090  -3.26540    62    70    63    72
 C    -0.22970   1.40340  -3.67010    63    62    64    60
 C     0.90070   2.10780  -3.29540    64    56    63    74
 C    -1.26470  -2.14810  -3.18660    65    66    43    69
 C     0.02610  -2.65810  -3.07350    66    40    59    65
 C    -3.50110  -0.71790  -2.35980    67    44    76    68
 C    -2.56670  -0.09040  -3.19050    68    70    67    69
 C    -1.38200  -0.78200  -3.60330    69    68    65    60
 C    -2.54940   1.28230  -3.03290    70    62    68    78
 C    -2.60970   3.08650  -1.76000    71    75    72    78
 C    -1.44190   3.14000  -2.45840    72    71    73    62
 C    -0.29650   3.74400  -1.95420    73    74    72    89
 C     0.86450   3.23030  -2.45260    74    73    11    64
 C    -2.66030   3.58170  -0.50900    75    71    92    82
 C    -4.25400  -0.03280  -1.40110    76    81    77    67
 C    -4.15000   1.32880  -1.19080    77    76    78    83
 C    -3.31610   1.96650  -2.09380    78    71    77    70
 C    -4.27190   0.88830   1.16390    79    80    83    88
 C    -4.44440  -0.44150   0.90600    80    81    79    30
 C    -4.46020  -0.90710  -0.36620    81    80    47    76
 C    -3.41690   2.93580   0.44100    82    75    83    86
 C    -4.18440   1.82860   0.14020    83    82    79    77
 C    -0.48800   3.65550   2.05150    84    85    91    31
 C    -1.61050   3.81100   1.35850    85    84    86    92
 C    -2.70950   3.05120   1.63040    86    85    82    87
 C    -2.67530   2.03800   2.59600    87    88    86    32
 C    -3.51700   0.98920   2.33420    88    87    36    79
 C    -0.28780   4.25600  -0.63210    89    92    73    90
 C     0.91850   4.17370   0.14060    90    91     9    89
 C     0.74000   3.88110   1.50030    91    84     5    90
 C    -1.52340   4.12970   0.03010    92    85    75    89
