    92
C92-C1-58                                                                       
 C    -2.17630   2.21730  -2.79670     1     2     6    60
 C    -2.24570   0.95960  -3.33850     2     1     3     9
 C    -3.24790   0.14630  -2.77750     3     4    59     2
 C    -3.11320  -1.19860  -2.69020     4     5     3    19
 C    -2.04100  -1.77090  -3.22120     5     4    20    10
 C    -0.98330   2.90630  -2.71530     6     1    65     7
 C     0.23650   2.38500  -3.17380     7     6    15     8
 C     0.21690   1.04550  -3.73920     8     9     7    12
 C    -1.04930   0.36770  -3.81960     9    10     2     8
 C    -1.02020  -1.02270  -3.78330    10    27     5     9
 C     2.54130   0.82260  -3.08240    11    12    16    84
 C     1.42230   0.23340  -3.64110    12    11    26     8
 C     2.29780   3.76830  -0.45450    13    90    70    14
 C     1.28630   3.83770  -1.43250    14    67    13    15
 C     1.40110   2.92230  -2.55070    15    16     7    14
 C     2.54480   2.12300  -2.58420    16    91    11    15
 C    -3.18260  -2.81320  -0.87380    17    19    31    18
 C    -2.07500  -3.49330  -1.50030    18    20    24    17
 C    -3.69370  -1.68960  -1.54380    19    44     4    17
 C    -1.55590  -2.91500  -2.67840    20     5    21    18
 C    -0.23540  -2.92560  -3.02500    21    22    20    27
 C     0.63960  -3.58220  -2.27740    22    21    23    28
 C     0.22130  -4.22940  -1.15120    23    22    39    24
 C    -1.11400  -4.18100  -0.71820    24    25    23    18
 C    -1.26370  -4.14010   0.65130    25    30    24    41
 C     1.38420  -1.19510  -3.54940    26    27    12    29
 C     0.12310  -1.75820  -3.65510    27    10    21    26
 C     1.92020  -3.11470  -2.15840    28    22    80    29
 C     2.36890  -1.93300  -2.77910    29    28    85    26
 C    -2.29650  -3.45260   1.24380    30    25    33    31
 C    -3.30210  -2.76640   0.54740    31    30    17    32
 C    -3.87380  -1.61730   1.19850    32    35    43    31
 C    -1.79260  -3.01190   2.44480    33    34    36    30
 C    -2.25300  -1.90160   3.00010    34    33    35    52
 C    -3.29660  -1.24450   2.43500    35    34    45    32
 C    -0.49250  -3.33990   2.59060    36    33    41    37
 C     0.40400  -2.48760   3.26000    37    38    36    51
 C     1.68890  -2.59540   2.81290    38    37    72    42
 C     1.31380  -4.21550  -0.30730    39    40    23    80
 C     1.13990  -4.15260   1.05510    40    41    42    39
 C    -0.15240  -4.11450   1.50080    41    40    36    25
 C     2.06590  -3.42030   1.74880    42    82    40    38
 C    -4.38600  -0.53400   0.43840    43    44    47    32
 C    -4.27630  -0.60120  -0.93720    44    19    43    59
 C    -3.16140   0.04260   2.86420    45    46    35    53
 C    -3.68420   1.02630   2.14340    46    45    49    47
 C    -4.30250   0.77090   0.95010    47    46    57    43
 C    -1.06720   3.39780   2.25680    48    50    79    62
 C    -3.06720   2.23540   2.13450    49    46    61    50
 C    -1.86370   2.44840   2.83150    50    48    49    55
 C    -0.03150  -1.22700   3.76380    51    52    37    56
 C    -1.40230  -1.01800   3.64930    52    53    34    51
 C    -1.97210   0.21100   3.55740    53    52    45    55
 C     0.21650   1.26820   3.65540    54    78    55    56
 C    -1.22850   1.38630   3.54430    55    53    50    54
 C     0.82780  -0.05560   3.77290    56    73    51    54
 C    -4.10160   1.89920   0.17670    57    58    47    61
 C    -3.94080   1.79160  -1.18740    58    59    57    60
 C    -4.04220   0.53670  -1.71760    59    58     3    44
 C    -3.00630   2.63800  -1.76130    60    64    58     1
 C    -3.36740   2.81910   0.91390    61    63    49    57
 C    -1.37740   4.01690   1.03930    62    63    66    48
 C    -2.49500   3.69230   0.32140    63    62    61    64
 C    -2.31570   3.58250  -1.04680    64    60    65    63
 C    -1.08580   3.78750  -1.64760    65    67    64     6
 C    -0.18960   4.32620   0.42960    66    68    62    67
 C     0.02020   4.21030  -0.95490    67    65    14    66
 C     0.79380   4.01890   1.31990    68    70    66    79
 C     2.82870   2.93500   1.58840    69    89    70    77
 C     2.01920   3.79410   0.90040    70    68    69    13
 C     3.47550  -1.76070   1.89040    71    74    82    72
 C     2.54250  -1.52700   2.88050    72    38    71    73
 C     2.18700  -0.23130   3.33120    73    72    76    56
 C     4.14210  -0.75300   1.36360    74    71    75    87
 C     3.94930   0.52000   1.82650    75    92    74    76
 C     2.94510   0.84810   2.78660    76    77    73    75
 C     2.35000   2.13070   2.66480    77    76    69    78
 C     1.00170   2.33630   3.08960    78    79    77    54
 C     0.28970   3.35720   2.41580    79    48    68    78
 C     2.37480  -3.55370  -0.93470    80    81    28    39
 C     3.34740  -2.86560  -0.24780    81    80    82    88
 C     3.15070  -2.84980   1.14080    82    71    42    81
 C     4.11160   0.97380  -1.52750    83    91    86    84
 C     3.52440   0.09600  -2.39360    84    83    85    11
 C     3.43940  -1.27620  -2.13720    85    84    29    88
 C     4.54500   0.54370  -0.31470    86    87    83    92
 C     4.44110  -0.75980   0.00800    87    86    74    88
 C     3.94810  -1.74480  -0.86180    88    87    81    85
 C     3.74560   2.52680   0.66340    89    92    69    90
 C     3.39650   2.99830  -0.57600    90    91    13    89
 C     3.54090   2.19900  -1.64890    91    90    83    16
 C     4.30760   1.32910   0.79070    92    89    75    86
