    92
C92-Cs-14                                                                       
 C     4.32120   1.36810   1.35740     1     3     7     2
 C     3.88720   2.48380   0.66850     2     4    13     1
 C     4.77330   0.29130   0.66720     3     1    20    57
 C     3.89090   2.48200  -0.67350     4     2     5    58
 C     2.83060   3.05170  -1.32540     5     4    64    11
 C     1.54830   2.22180   3.06760     6     8    14    16
 C     3.54300   1.21380   2.46590     7     1     8    18
 C     2.71000   2.29840   2.46580     8     6     7    13
 C     0.46960   2.95920  -2.60720     9    90    63    10
 C     0.45960   3.66390  -1.38140    10     9    11    34
 C     1.71120   3.67270  -0.69680    11    12     5    10
 C     1.71590   3.67130   0.72040    12    11    13    15
 C     2.83730   3.05450   1.33210    13     2     8    12
 C     0.47180   2.93490   2.61430    14    29     6    15
 C     0.46180   3.65520   1.39740    15    14    12    35
 C     1.14540   1.06760   3.68390    16    22     6    17
 C     1.86610  -0.12230   3.62040    17    16    26    18
 C     3.15400  -0.04460   2.98040    18    19     7    17
 C     3.65610  -1.15630   2.26520    19    21    20    18
 C     4.44010  -0.95890   1.10990    20     3    39    19
 C     2.85130  -2.27590   2.24240    21    19    37    27
 C    -0.20370   1.13930   3.75560    22    16    24    29
 C    -2.30360   0.25470   3.44630    23    52    24    30
 C    -1.00370   0.02010   3.81800    24    23    22    25
 C    -0.40290  -1.26020   3.66290    25    24    26    51
 C     1.04890  -1.29910   3.58280    26    27    17    25
 C     1.61820  -2.35270   2.88380    27    46    26    21
 C    -1.85690   2.51010   2.63510    28    29    30    31
 C    -0.62160   2.32710   3.14030    29    28    14    22
 C    -2.74650   1.48250   2.93140    30    89    28    23
 C    -1.98630   3.25680   1.42200    31    32    28    35
 C    -3.13150   2.93800   0.69260    32    36    88    31
 C    -1.98990   3.26630  -1.41140    33    36    92    34
 C    -0.81060   3.74810  -0.71870    34    10    33    35
 C    -0.80840   3.74320   0.73610    35    15    31    34
 C    -3.13660   2.94190  -0.68460    36    32    86    33
 C     2.80630  -3.11980   1.14480    37    41    38    21
 C     3.48710  -2.84430  -0.02890    38    39    40    37
 C     4.31130  -1.75590  -0.02710    39    38    20    56
 C     2.80360  -3.10720  -1.20130    40    44    38    54
 C     1.57510  -3.71640   1.14850    41    37    43    46
 C    -0.39360  -4.07900  -0.01480    42    43    50    65
 C     0.96010  -4.07460  -0.02620    43    42    44    41
 C     1.57540  -3.70810  -1.19550    44    40    43    67
 C    -0.54190  -3.25980   2.25870    45    46    50    51
 C     0.83820  -3.27780   2.23580    46    27    45    41
 C    -4.13490  -1.87350   0.69140    47    84    48    78
 C    -3.17030  -2.55720   1.43970    48    49    47    53
 C    -2.37310  -3.37450   0.68210    49    50    48    80
 C    -1.14080  -3.75000   1.09960    50    49    42    45
 C    -1.23440  -2.27360   3.01030    51    45    53    25
 C    -3.11410  -0.72050   2.92530    52    23    82    53
 C    -2.59420  -1.97570   2.62100    53    52    48    51
 C     2.85760  -2.25820  -2.29510    54    55    40    68
 C     3.66310  -1.13940  -2.30110    55    54    56    60
 C     4.45740  -0.94170  -1.15080    56    57    39    55
 C     4.79200   0.30300  -0.70460    57    58    56     3
 C     4.34070   1.38660  -1.37580    58    57    61     4
 C     1.86100  -0.09290  -3.63220    59    62    70    60
 C     3.15650  -0.01280  -3.00010    60    61    55    59
 C     3.55470   1.24220  -2.48140    61    58    64    60
 C     1.14100   1.10270  -3.67850    62    76    63    59
 C     1.55060   2.25920  -3.06900    63    64     9    62
 C     2.71260   2.32130  -2.47810    64    63    61     5
 C    -1.13600  -3.74470  -1.13510    65    80    42    66
 C    -0.53790  -3.23990  -2.29210    66    67    65    72
 C     0.84210  -3.25210  -2.27610    67    68    66    44
 C     1.62020  -2.32700  -2.92880    68    67    70    54
 C    -0.41340  -1.23090  -3.67760    69    75    70    72
 C     1.03830  -1.26860  -3.61020    70    68    59    69
 C    -2.59910  -1.96110  -2.62710    71    73    79    72
 C    -1.24150  -2.24960  -3.02950    72    66    71    69
 C    -3.10620  -0.69390  -2.91970    73    74    81    71
 C    -2.30880   0.28870  -3.44600    74    73    75    91
 C    -1.01020   0.05280  -3.82020    75    74    76    69
 C    -0.20840   1.16980  -3.75360    76    62    75    90
 C    -4.63630  -0.65360  -1.09330    77    81    83    78
 C    -4.13930  -1.87330  -0.71420    78    77    79    47
 C    -3.17630  -2.55550  -1.45590    79    80    78    71
 C    -2.37600  -3.37660  -0.71820    80    65    79    49
 C    -4.09380  -0.07010  -2.18910    81    77    85    73
 C    -4.10500  -0.09580   2.20030    82    84    89    52
 C    -4.95250   0.09250   0.00780    83    84    77    87
 C    -4.64180  -0.66480   1.09540    84    82    83    47
 C    -3.85190   1.27620  -2.18850    85    91    86    81
 C    -4.09430   2.01610  -1.08070    86    85    87    36
 C    -4.66560   1.44300   0.01210    87    88    86    83
 C    -4.08820   2.01210   1.10360    88    89    87    32
 C    -3.84990   1.25490   2.19940    89    30    88    82
 C    -0.62600   2.35710  -3.13440    90    92     9    76
 C    -2.75460   1.51410  -2.93260    91    85    92    74
 C    -1.86430   2.53290  -2.63200    92    90    91    33
