    92
C92-C2-51                                                                       
 C    -4.40300   0.73190   1.30730     1    14     2     3
 C    -4.25050  -0.57280   1.66360     2     4     1     6
 C    -4.60670   1.05900   0.00060     3    22     1    49
 C    -4.35400  -1.54210   0.73150     4     2     5    48
 C    -3.58100  -2.64690   0.84290     5     4    69     8
 C    -3.30070  -0.67100   2.65070     6     2    15     7
 C    -2.44970  -1.76520   2.80510     7     6    17     8
 C    -2.63330  -2.85470   1.87140     8    10     5     7
 C    -0.34400  -3.47920   2.18290     9    10    16    90
 C    -1.54450  -3.67840   1.54270    10     9    11     8
 C    -1.39520  -4.14870   0.23530    11    70    87    10
 C    -1.83730   3.00440   2.21290    12    23    13    20
 C    -3.03700   2.67780   1.62280    13    12    14    21
 C    -3.58760   1.49090   2.08210    14     1    13    15
 C    -2.89730   0.61830   2.93530    15     6    19    14
 C    -0.17100  -2.42400   3.06620    16    36     9    17
 C    -1.16000  -1.49610   3.36900    17    16     7    18
 C    -0.70920  -0.14850   3.68200    18    19    17    38
 C    -1.63630   0.89830   3.42500    19    15    20    18
 C    -1.15810   2.15170   3.09220    20    40    19    12
 C    -3.24280   3.07210   0.26490    21    22    25    13
 C    -4.00850   2.17450  -0.50280    22     3    46    21
 C    -0.88550   3.77670   1.61290    23    12    24    27
 C    -1.04540   4.20480   0.30190    24    26    23    25
 C    -2.20300   3.78400  -0.39240    25    44    24    21
 C     0.16590   4.33400  -0.35350    26    29    42    24
 C     0.35690   3.48820   2.16840    27    28    40    23
 C     1.55710   3.67920   1.52880    28    27    29    34
 C     1.39770   4.13200   0.21540    29    31    26    28
 C     3.32070   3.01790  -0.47300    30    31    60    35
 C     2.24570   3.71490  -0.77220    31    30    47    29
 C     3.31510   0.67820   2.63010    32    81    41    33
 C     2.46110   1.77550   2.79000    33    32    39    34
 C     2.65400   2.86260   1.85140    34    28    35    33
 C     3.60390   2.64950   0.82800    35    82    30    34
 C     1.16880  -2.13220   3.09680    36    16    37    84
 C     1.64230  -0.87330   3.41960    37    36    41    38
 C     0.71760   0.17390   3.67720    38    37    39    18
 C     1.16950   1.51850   3.35740    39    40    33    38
 C     0.17880   2.44280   3.05870    40    20    27    39
 C     2.90420  -0.60880   2.91790    41    32    37    86
 C     0.29820   3.94230  -1.66780    42    43    47    26
 C    -0.73510   3.43470  -2.30840    43    42    44    64
 C    -1.96690   3.41230  -1.73580    44    45    43    25
 C    -2.62380   2.40770  -2.36530    45    46    44    51
 C    -3.65930   1.82560  -1.79480    46    45    50    22
 C     1.54560   3.47990  -1.92220    47    42    31    62
 C    -4.49890  -1.21110  -0.59590    48    49    59     4
 C    -4.60040   0.07300  -0.95620    49    48    50     3
 C    -3.92360   0.51400  -2.06020    50    46    49    54
 C    -1.75700   1.69910  -3.17940    51    64    45    53
 C    -0.65900  -0.37280  -3.66620    52    56    53    67
 C    -1.89270   0.32660  -3.41230    53    51    52    54
 C    -3.05600  -0.30590  -2.83900    54    58    50    53
 C     0.54770  -2.37730  -3.12440    55    68    75    56
 C    -0.69190  -1.77580  -3.36600    56    55    52    57
 C    -1.83230  -2.40990  -2.76010    57    58    71    56
 C    -3.00810  -1.67700  -2.48010    58    57    54    59
 C    -3.76860  -2.07970  -1.34050    59    48    69    58
 C     3.75880   2.05700  -1.35630    60    77    30    61
 C     2.98690   1.65680  -2.48910    61    62    65    60
 C     1.81770   2.38680  -2.78420    62    61    47    63
 C     0.67730   1.75560  -3.39000    63    64    67    62
 C    -0.55920   2.35900  -3.16100    64    51    43    63
 C     3.03440   0.28070  -2.82310    65    61    79    66
 C     1.87130  -0.35050  -3.39710    66    68    67    65
 C     0.64590   0.34970  -3.66990    67    63    66    52
 C     1.74720  -1.71650  -3.14820    68    55    73    66
 C    -3.32270  -3.03610  -0.46180    69    70    59     5
 C    -2.24990  -3.73540  -0.75070    70    69    71    11
 C    -1.54600  -3.50130  -1.89780    71    76    70    57
 C     3.64510  -1.84460  -1.76620    72    73    79    91
 C     2.61030  -2.43080  -2.33590    73    72    74    68
 C     1.96030  -3.44510  -1.71430    74    73    75    88
 C     0.72660  -3.46410  -2.28410    75    76    74    55
 C    -0.30470  -3.97040  -1.64150    76    75    71    87
 C     4.49790   1.20540  -0.58840    77    78    60    82
 C     4.59180  -0.08430  -0.93590    78    77    79    83
 C     3.89860  -0.52620  -2.03050    79    72    78    65
 C     4.42180  -0.73010   1.31460    80    86    81    83
 C     4.28710   0.58240   1.65940    81    82    80    32
 C     4.38490   1.55520   0.73780    82    81    35    77
 C     4.61470  -1.08140   0.01070    83    91    80    78
 C     1.83550  -2.99990   2.22160    84    90    85    36
 C     3.03990  -2.67960   1.63200    85    84    86    92
 C     3.60080  -1.49350   2.08270    86    80    85    41
 C    -0.15980  -4.36590  -0.33170    87    76    11    89
 C     2.20400  -3.81370  -0.36830    88    89    74    92
 C     1.05000  -4.23100   0.33140    89    90    87    88
 C     0.89370  -3.78890   1.63280    90    84    89     9
 C     4.02250  -2.19950  -0.48480    91    83    72    92
 C     3.24830  -3.09190   0.27650    92    91    88    85
