    92
C92-D2-1                                                                        
 C    -4.42000   2.32180  -0.32930     1     2    16     3
 C    -3.38940   3.19480  -0.23200     2     4     1     6
 C    -4.82980   1.59980   0.77180     3    15     1    53
 C    -2.75420   3.37680   0.94480     4     5     2    52
 C    -1.45220   3.69450   0.99600     5     4     8    71
 C    -2.58300   3.11780  -1.34590     6     7    17     2
 C    -1.26240   3.47670  -1.35940     7     6    19     8
 C    -0.67220   3.91730  -0.11830     8    11     5     7
 C     2.59270   3.13410   1.31220     9    10    72    90
 C     1.27050   3.49440   1.32590    10     9    70    11
 C     0.68470   3.91930   0.07550    11     8    12    10
 C     1.46080   3.68800  -1.03640    12    91    11    20
 C    -5.22390  -0.28740  -0.61400    13    22    15    14
 C    -4.63810   0.40170  -1.67550    14    16    26    13
 C    -5.21530   0.30380   0.63620    15     3    13    34
 C    -4.24020   1.67600  -1.52980    16    14     1    17
 C    -3.07830   2.11090  -2.14030    17     6    16    18
 C    -2.21730   1.29630  -2.91450    18    17    25    24
 C    -0.42500   2.84590  -2.31270    19    20     7    24
 C     0.90550   3.05550  -2.14270    20    19    43    12
 C    -3.05050  -2.54630  -1.96090    21    23    30    27
 C    -4.84250  -1.58590  -0.74760    22    13    32    23
 C    -4.05030  -1.66230  -1.88100    23    21    26    22
 C    -0.84740   1.66460  -3.03960    24    18    19    28
 C    -2.61530  -0.05710  -3.05050    25    18    26    29
 C    -3.84910  -0.43160  -2.43270    26    23    14    25
 C    -1.88560  -2.26980  -2.62650    27    50    21    29
 C     0.18850   0.68070  -3.37480    28    44    45    24
 C    -1.57770  -1.02920  -3.20210    29    27    25    45
 C    -2.76510  -3.37660  -0.92500    30    35    31    21
 C    -3.40530  -3.17990   0.24630    31    32    30    36
 C    -4.42690  -2.30520   0.35320    32    31    33    22
 C    -4.25000  -1.66300   1.55170    33    34    32    55
 C    -4.64400  -0.38760   1.69970    34    33    54    15
 C    -1.46450  -3.69570  -0.98430    35    30    38    50
 C    -2.58750  -3.10480   1.35430    36    37    55    31
 C    -1.26620  -3.46610   1.36470    37    36    57    38
 C    -0.67780  -3.91130   0.12370    38    41    35    37
 C     2.58450  -3.12860  -1.31230    39    40    51    84
 C     1.26150  -3.48670  -1.32190    40    39    49    41
 C     0.67820  -3.91310  -0.07090    41    38    42    40
 C     1.45560  -3.68410   1.04080    42    85    41    56
 C     1.88240   2.25010  -2.65980    43    20    86    44
 C     1.57660   1.00020  -3.21320    44    43    46    28
 C    -0.18940  -0.71540  -3.36650    45    29    28    48
 C     2.61000   0.02710  -3.04760    46    47    44    88
 C     2.21450  -1.32480  -2.89450    47    51    46    48
 C     0.84460  -1.69550  -3.01520    48    47    49    45
 C     0.41750  -2.86770  -2.27670    49    50    40    48
 C    -0.91050  -3.07640  -2.10250    50    49    27    35
 C     3.08180  -2.12230  -2.11030    51    39    82    47
 C    -3.05440   2.56400   1.99170    52    53     4    63
 C    -4.05320   1.68360   1.90930    53    52    54     3
 C    -3.85350   0.44830   2.45570    54    53    34    60
 C    -3.08230  -2.09800   2.15410    55    36    33    59
 C     0.90240  -3.04930   2.14730    56    57    64    42
 C    -0.42760  -2.83580   2.31750    57    56    37    58
 C    -0.84770  -1.65350   3.04510    58    59    57    61
 C    -2.21760  -1.28310   2.92570    59    55    60    58
 C    -2.61490   0.07160   3.06600    60    59    54    62
 C     0.19000  -0.67100   3.37840    61    65    66    58
 C    -1.57570   1.04640   3.20930    62    63    60    66
 C    -1.87750   2.29220   2.63980    63    71    52    62
 C     1.88120  -2.24580   2.66380    64    56    78    65
 C     1.57770  -0.99350   3.21480    65    64    67    61
 C    -0.18590   0.72600   3.37090    66    62    61    69
 C     2.61160  -0.02090   3.04480    67    68    65    77
 C     2.21940   1.33120   2.89350    68    72    67    69
 C     0.85140   1.70460   3.01950    69    68    70    66
 C     0.42800   2.87990   2.28510    70    71    10    69
 C    -0.89820   3.09090   2.11720    71    70    63     5
 C     3.08680   2.12750   2.10780    72     9    75    68
 C     5.21900  -0.28990   0.61220    73    79    76    74
 C     4.63040   0.41290   1.66590    74    75    77    73
 C     4.25140   1.69170   1.50300    75    74    89    72
 C     5.22140   0.29500  -0.64120    76    92    73    81
 C     3.83900  -0.41900   2.42700    77    80    74    67
 C     3.04640  -2.53950   2.00380    78    80    85    64
 C     4.83140  -1.58410   0.77550    79    73    80    83
 C     4.04960  -1.66190   1.90430    80    78    77    79
 C     4.63690  -0.41000  -1.68430    81    82    88    76
 C     4.25050  -1.68490  -1.51230    82    81    83    51
 C     4.41810  -2.33040  -0.31270    83    84    82    79
 C     3.39740  -3.20840  -0.20050    84    85    83    39
 C     2.76010  -3.38230   0.97500    85    42    84    78
 C     3.04890   2.53980  -2.00000    86    87    91    43
 C     4.05580   1.66480  -1.90470    87    86    88    92
 C     3.84170   0.42300  -2.43550    88    87    81    46
 C     4.44130   2.33820   0.30710    89    90    75    92
 C     3.40790   3.21060   0.20120    90    91    89     9
 C     2.76500   3.38330  -0.97140    91    12    90    86
 C     4.85470   1.59890  -0.77760    92    76    89    87
