    92
C92-C1-66                                                                       
 C     0.26310   1.66360   3.67250     1     2     6    54
 C     1.47020   2.10420   3.21900     2     1     3     9
 C     2.46070   1.13000   3.22060     3     4     2    53
 C     3.51640   1.17350   2.36920     4     5     3    27
 C     3.58680   2.16790   1.46810     5     4    18    10
 C    -0.90850   2.25240   3.29820     6     1    69     7
 C    -0.99210   3.28030   2.34240     7     6    14     8
 C     0.25530   3.72240   1.76800     8     7     9    12
 C     1.49210   3.16040   2.25600     9    10     2     8
 C     2.60360   3.13450   1.39860    10    24     5     9
 C    -1.01100   4.12260  -0.25540    11    13    85    12
 C     0.23030   4.17760   0.39520    12    11    23     8
 C    -2.18870   3.71300   0.31040    13    11    14    92
 C    -2.22650   3.29420   1.62360    14    13    15     7
 C    -3.22190   2.33940   1.87520    15    68    89    14
 C     4.24700   0.27850  -1.45600    16    28    22    17
 C     4.54320   0.62710  -0.13060    17    18    16    26
 C     4.09770   1.90430   0.22140    18     5    19    17
 C     3.44310   2.76090  -0.63380    19    18    21    24
 C     2.01470   2.83490  -2.47150    20    21    25    35
 C     3.17290   2.36770  -1.92890    21    20    22    19
 C     3.55350   1.10920  -2.30920    22    21    16    37
 C     1.37900   4.03260  -0.43560    23    24    25    12
 C     2.54280   3.54080   0.09100    24    23    10    19
 C     1.17790   3.68740  -1.78310    25    86    20    23
 C     4.47480  -0.40160   0.84120    26    30    27    17
 C     3.93340  -0.09610   2.08320    27     4    26    44
 C     3.92770  -0.99600  -1.81670    28    29    16    31
 C     3.92720  -1.96880  -0.90160    29    28    32    30
 C     4.18060  -1.68970   0.42520    30    29    26    42
 C     2.97740  -0.99010  -2.82110    31    37    28    34
 C     3.03220  -2.98450  -1.01780    32    29    41    33
 C     2.06560  -3.07490  -2.04200    33    48    32    34
 C     2.00260  -1.97570  -2.97730    34    31    39    33
 C     1.22710   2.06660  -3.33140    35    78    36    20
 C     1.53170   0.75410  -3.64810    36    35    37    38
 C     2.74930   0.32290  -3.14250    37    31    36    22
 C     0.46460  -0.17160  -3.86370    38    36    39    80
 C     0.74470  -1.56250  -3.54110    39    40    34    38
 C    -0.34490  -2.36770  -3.22670    40    83    47    39
 C     2.78580  -3.38700   0.27280    41    45    42    32
 C     3.41050  -2.57090   1.16640    42    41    30    43
 C     2.78950  -2.22550   2.37560    43    44    42    50
 C     3.10890  -0.95860   2.80150    44    53    43    27
 C     1.62380  -3.94810   0.58060    45    41    46    49
 C     0.70900  -4.21300  -0.38830    46    45    63    48
 C    -0.27210  -3.43970  -2.35150    47    48    61    40
 C     0.89370  -3.77170  -1.71220    48    47    33    46
 C     0.98150  -3.67030   1.76750    49    55    45    50
 C     1.49270  -2.75280   2.68820    50    49    43    51
 C     0.51430  -1.98310   3.42280    51    52    50    58
 C     0.93930  -0.68160   3.83210    52    54    53    51
 C     2.20140  -0.21250   3.50700    53    44    52     3
 C     0.00210   0.31530   3.97720    54    60    52     1
 C    -0.34960  -3.87970   1.55780    55    49    57    63
 C    -2.53080  -3.06140   1.57740    56    65    57    64
 C    -1.32340  -3.20020   2.26550    57    55    56    58
 C    -0.92100  -2.21000   3.21480    58    57    59    51
 C    -1.86080  -1.13640   3.43870    59    60    66    58
 C    -1.32730   0.09790   3.81680    60    54    69    59
 C    -1.51840  -3.59740  -1.77350    61    74    47    62
 C    -1.66510  -4.00660  -0.45630    62    63    64    61
 C    -0.51870  -4.26430   0.22210    63    62    46    55
 C    -2.70230  -3.44940   0.24550    64    62    77    56
 C    -3.39420  -2.02080   1.79440    65    56    66    70
 C    -3.10350  -1.05010   2.73000    66    65    67    59
 C    -3.65210   0.20400   2.42560    67    68    73    66
 C    -3.02130   1.35360   2.79590    68    69    67    15
 C    -1.88830   1.30600   3.47950    69    68    60     6
 C    -4.09490  -1.75460   0.61700    70    77    72    65
 C    -4.41900  -0.09320  -1.01330    71    90    75    72
 C    -4.54510  -0.48400   0.31590    72    73    70    71
 C    -4.33780   0.49380   1.25830    73    72    67    89
 C    -2.38090  -2.69010  -2.33610    74    61    76    83
 C    -3.85370  -0.92980  -1.96110    75    76    71    81
 C    -3.47700  -2.21170  -1.65900    76    75    74    77
 C    -3.62320  -2.61630  -0.34310    77    70    64    76
 C    -0.05760   2.50840  -3.23980    78    35    86    79
 C    -1.16760   1.70780  -3.47340    79    78    88    80
 C    -0.91750   0.32370  -3.80650    80    82    79    38
 C    -3.12700  -0.14100  -2.85330    81    87    75    82
 C    -1.96250  -0.59070  -3.49100    82    83    81    80
 C    -1.64290  -1.90710  -3.22050    83    40    82    74
 C    -2.28680   3.14690  -1.83910    84    85    92    88
 C    -1.12600   3.80060  -1.59490    85    86    84    11
 C    -0.05150   3.53380  -2.31570    86    85    25    78
 C    -3.31130   1.16400  -2.49190    87    81    88    90
 C    -2.35750   2.10580  -2.78550    88    87    84    79
 C    -4.06370   1.80870   0.91240    89    91    15    73
 C    -4.11070   1.20820  -1.35300    90    71    91    87
 C    -3.94960   2.19870  -0.40190    91    92    89    90
 C    -3.01810   3.16090  -0.67150    92    91    84    13
