    50
C50-C1-240                                                                      
 C     0.38170   0.63220  -2.90220     1    32     2     6
 C    -0.54250   1.55460  -2.55120     2     1     3     9
 C    -1.79240   1.09440  -2.23470     3     2    10     4
 C    -2.06520  -0.30000  -2.24650     4    13     3     5
 C    -1.01380  -1.26720  -2.41400     5     6     4    15
 C     0.23290  -0.73410  -2.81880     6     1    34     5
 C    -0.54540   3.04430  -0.69720     7    17     9     8
 C    -1.81380   2.54580  -0.32970     8    10     7    22
 C     0.11890   2.52650  -1.79500     9     7     2    25
 C    -2.46440   1.64170  -1.13760    10    11     8     3
 C    -3.18080   0.65260  -0.56880    11    10    13    20
 C    -3.03410  -1.51840  -0.45420    12    13    43    16
 C    -3.02270  -0.49350  -1.29520    13    12     4    11
 C     0.30330  -2.79490  -1.01030    14    35    15    48
 C    -0.99030  -2.37580  -1.46620    15    16    14     5
 C    -2.02900  -2.45410  -0.49600    16    12    50    15
 C     0.15590   3.19110   0.44640    17     7    18    23
 C    -0.60470   2.78670   1.48890    18    19    17    22
 C     0.18530   2.12730   2.32590    19    18    27    47
 C    -3.17900   0.34080   0.78740    20    43    11    21
 C    -2.33210   1.09660   1.64300    21    20    22    46
 C    -1.80700   2.30430   1.07510    22    18     8    21
 C     1.46840   2.77660   0.61750    23    27    17    24
 C     2.17700   2.19010  -0.44560    24    23    25    26
 C     1.47580   2.13160  -1.68560    25    32     9    24
 C     2.97010   1.04140  -0.11650    26    30    29    24
 C     1.45240   2.15810   1.85590    27    28    19    23
 C     2.06950   0.99000   2.11750    28    27    29    39
 C     2.94630   0.46920   1.19700    29    37    28    26
 C     3.10890  -0.05510  -1.01440    30    33    31    26
 C     2.32610  -0.09000  -2.15540    31    32    30    34
 C     1.59860   0.99960  -2.45610    32    31     1    25
 C     3.17120  -1.17410  -0.23860    33    37    36    30
 C     1.47470  -1.21200  -2.39110    34    35     6    31
 C     1.50870  -2.27590  -1.51790    35    36    34    14
 C     2.41000  -2.25870  -0.49600    36    38    33    35
 C     3.02770  -0.87940   1.07040    37    33    29    42
 C     1.81930  -2.65270   0.64550    38    36    48    42
 C     1.07710   0.14070   2.70990    39    41    47    28
 C    -0.20620  -1.82080   2.27270    40    41    45    49
 C     1.07580  -1.24650   2.44440    41    42    39    40
 C     2.12700  -1.75690   1.66240    42    38    37    41
 C    -3.18480  -1.02870   0.81500    43    44    12    20
 C    -2.32580  -1.69020   1.58060    44    43    50    45
 C    -1.41390  -1.07170   2.38900    45    44    46    40
 C    -1.40500   0.34090   2.52250    46    47    45    21
 C    -0.13130   0.89150   2.78760    47    19    46    39
 C     0.55410  -3.07080   0.37560    48    38    49    14
 C    -0.44200  -2.80760   1.27040    49    50    48    40
 C    -1.69290  -2.63640   0.83800    50    49    44    16
