    50
C50-C1-152                                                                      
 C     1.66460  -2.34840  -1.47220     1     3     5     2
 C     2.66800  -2.16540  -0.54980     2     1    27    10
 C     1.23180  -1.27970  -2.21320     3     1     8     6
 C    -0.63420  -2.85670  -0.93760     4     5    33     7
 C     0.70150  -3.07100  -0.81210     5     4    28     1
 C    -0.14530  -1.06790  -2.39780     6    17     3     7
 C    -1.14210  -1.89310  -1.83620     7    20     6     4
 C     1.87330  -0.04740  -2.12730     8     3    12     9
 C     2.93970   0.18350  -1.19730     9    10    11     8
 C     3.23130  -0.91110  -0.36870    10     2    23     9
 C     2.91070   1.46800  -0.61720    11    14     9    21
 C     0.89720   0.92620  -2.37740    12    13    17     8
 C     1.01330   2.18450  -1.86500    13    12    14    48
 C     2.09440   2.49090  -1.07110    14    25    13    11
 C    -2.59990   0.05730  -1.69060    15    44    20    16
 C    -1.55400   0.94120  -2.07390    16    17    15    47
 C    -0.35180   0.31760  -2.49580    17    12     6    16
 C    -3.77520  -0.68330   0.00210    18    19    50    44
 C    -3.10570  -1.74920  -0.41710    19    18    32    20
 C    -2.37580  -1.33740  -1.53700    20     7    19    15
 C     2.83080   1.61120   0.79830    21    24    22    11
 C     2.74100   0.45840   1.51870    22    23    21    36
 C     3.12110  -0.73010   1.00460    23    26    22    10
 C     1.95110   2.62020   1.03410    24    25    21    34
 C     1.64580   3.28290  -0.09690    25    43    14    24
 C     2.43690  -1.76380   1.52850    26    27    23    29
 C     2.27470  -2.74450   0.63770    27    28    26     2
 C     1.05190  -3.25310   0.48890    28    27     5    31
 C     1.35600  -1.20120   2.20680    29    26    36    30
 C     0.04620  -1.75020   2.10370    30    29    38    31
 C    -0.06600  -2.87600   1.20320    31    28    33    30
 C    -2.31730  -2.24250   0.60950    32    33    19    39
 C    -1.17550  -2.91010   0.36450    33    32    31     4
 C     0.76130   2.34900   1.69360    34    24    40    35
 C     0.49720   1.09800   2.32430    35    36    34    37
 C     1.56540   0.18370   2.26810    36    29    35    22
 C    -0.83990   0.58120   2.35150    37    35    42    38
 C    -1.08340  -0.86830   2.23620    38    39    30    37
 C    -2.31920  -1.25240   1.61210    39    50    32    38
 C    -0.23060   2.98930   0.94310    40    41    43    34
 C    -1.47680   2.49010   0.95700    41    40    42    46
 C    -1.84750   1.41950   1.76920    42    49    41    37
 C     0.33300   3.46950  -0.21860    43    25    40    48
 C    -3.55460   0.42530  -0.75300    44    45    18    15
 C    -3.20720   1.47920   0.01640    45    44    46    49
 C    -2.21650   2.35890  -0.24900    46    45    41    47
 C    -1.40620   2.23010  -1.41650    47    48    46    16
 C    -0.13820   2.82480  -1.35950    48    43    47    13
 C    -2.98960   0.92620   1.25390    49    50    42    45
 C    -3.28840  -0.36130   1.22870    50    49    18    39
