    50
C50-C1-121                                                                      
 C     1.32000  -2.89700   0.33670     1     2    25     4
 C     2.15800  -2.14210   1.12810     2     3     1     5
 C     3.17420  -1.42660   0.54900     3     8     2    20
 C    -0.04270  -3.00510   0.62600     4     7     1    28
 C     1.57530  -1.29180   2.07670     5     6    13     2
 C     0.22070  -1.36200   2.29610     6     5     7    16
 C    -0.61370  -2.29130   1.67780     7    49     4     6
 C     3.32060  -0.24600   1.21310     8     9     3    13
 C     3.67460   0.69140   0.31880     9    10     8    19
 C     3.06580   1.87260   0.37190    10     9    15    12
 C     1.52050   1.15220   2.13440    11    12    13    17
 C     2.04380   2.16710   1.28190    12    18    10    11
 C     2.24860  -0.07460   2.07930    13     8     5    11
 C     1.43860   2.74660  -0.73660    14    15    35    18
 C     2.58640   2.11700  -0.87810    15    14    10    24
 C    -0.52430  -0.19770   2.49210    16     6    42    17
 C     0.07500   1.09470   2.33020    17    16    45    11
 C     1.12230   2.87860   0.57850    18    46    14    12
 C     3.51130   0.14100  -0.93580    19    20     9    24
 C     3.25310  -1.19240  -0.82960    20    19    21     3
 C     2.22640  -1.70520  -1.57420    21    25    20    22
 C     1.33930  -0.86900  -2.31540    22    32    23    21
 C     1.49850   0.53910  -2.32510    23    22    24    36
 C     2.68610   1.00570  -1.67120    24    15    19    23
 C     1.40160  -2.64180  -1.01710    25    26    21     1
 C     0.16770  -2.56640  -1.48950    26    25    28    32
 C    -2.01130  -2.36040  -0.63090    27    28    48    30
 C    -0.76840  -2.90350  -0.57080    28    26    27     4
 C    -3.25740  -0.63590  -1.09930    29    33    30    47
 C    -2.23290  -1.35800  -1.60640    30    29    27    31
 C    -1.14520  -0.75430  -2.32620    31    32    30    34
 C     0.05920  -1.45030  -2.29490    32    26    31    22
 C    -3.28440   0.69450  -1.22360    33    29    38    37
 C    -1.06020   0.69150  -2.32990    34    37    31    36
 C     0.31240   2.47680  -1.43370    35    14    39    36
 C     0.25150   1.31050  -2.26590    36    35    34    23
 C    -2.17410   1.34500  -1.70570    37    33    41    34
 C    -3.72900   1.18680  -0.03520    38    40    50    33
 C    -0.74020   2.81180  -0.58480    39    41    35    46
 C    -2.82870   2.12860   0.27360    40    38    41    44
 C    -1.98290   2.37060  -0.77570    41    39    40    37
 C    -1.85450  -0.49150   2.16000    42    43    16    49
 C    -2.75120   0.47130   1.73220    43    42    50    44
 C    -2.17210   1.72100   1.44250    44    40    43    45
 C    -0.82250   2.04670   1.69240    45    46    44    17
 C    -0.20560   2.86070   0.72380    46    18    45    39
 C    -3.62320  -1.01940   0.17120    47    48    50    29
 C    -2.74470  -2.00300   0.51400    48    47    49    27
 C    -1.90260  -1.79810   1.61540    49     7    48    42
 C    -3.78230   0.16440   0.84390    50    38    47    43
