    50
C50-C1-204                                                                      
 C    -3.35930  -0.16460   0.74840     1     2    29     9
 C    -3.50950   0.93980  -0.00720     2     4     1     3
 C    -2.84930   1.98110   0.59940     3     2    32     5
 C    -3.04430   0.82070  -1.26120     4     2     6     7
 C    -2.02730   2.62990  -0.31400     5     3     6    18
 C    -2.19370   1.84740  -1.45880     6     4    12     5
 C    -2.50110  -0.33330  -1.79030     7     4     8    13
 C    -2.53010  -1.54290  -1.06910     8    10     7     9
 C    -2.93060  -1.39250   0.30150     9     1    22     8
 C    -1.49510  -2.43640  -1.31420    10     8    20    15
 C     0.04540   2.00290  -2.07320    11    12    24    16
 C    -1.16560   1.42910  -2.22700    12    11     6    13
 C    -1.29830   0.05710  -2.45110    13    12    14     7
 C    -0.15570  -0.77300  -2.54960    14    15    13    25
 C    -0.33900  -2.07670  -2.07210    15    26    14    10
 C     0.25830   2.91780  -1.00760    16    19    18    11
 C    -0.21750   2.68540   1.28840    17    48    31    18
 C    -0.72890   3.06000  -0.00540    18     5    16    17
 C     1.57880   2.77690  -0.71050    19    16    43    50
 C    -1.00630  -3.25300  -0.29880    20    23    21    10
 C    -1.10760  -2.80450   0.99810    21    22    20    33
 C    -2.05840  -1.88810   1.29510    22    21    28     9
 C     0.27690  -3.48880  -0.50740    23    20    36    26
 C     1.19790   1.24660  -2.28090    24    43    11    25
 C     1.17280  -0.17270  -2.44170    25    24    14    46
 C     0.71600  -2.76790  -1.54130    26    23    47    15
 C    -0.44420  -0.56680   2.57720    27    28    30    35
 C    -1.77490  -0.82520   2.16190    28    29    22    27
 C    -2.62680   0.18940   1.83070    29     1    28    32
 C    -0.09850   0.82840   2.55080    30    39    31    27
 C    -0.98990   1.81900   2.08390    31    32    17    30
 C    -2.28280   1.51300   1.76530    32    31    29     3
 C     0.20080  -2.68170   1.51040    33    36    21    35
 C     1.88380  -1.04190   1.97530    34    38    35    42
 C     0.57580  -1.52750   2.24430    35    33    34    27
 C     1.04780  -3.21050   0.53170    36    23    40    33
 C     3.18640   0.60290   1.15380    37    49    41    38
 C     2.20660   0.31790   2.06830    38    37    39    34
 C     1.19340   1.24260   2.26730    39    30    38    48
 C     2.14520  -2.52150   0.11050    40    42    36    47
 C     3.32180  -0.50440   0.37290    41    42    37    45
 C     2.67400  -1.55960   0.91190    42    41    40    34
 C     2.15520   1.85190  -1.53000    43    44    24    19
 C     3.12230   1.21720  -0.88100    44    43    45    49
 C     3.16360  -0.14880  -0.96370    45    44    41    46
 C     2.25260  -0.90450  -1.75570    46    47    45    25
 C     1.91580  -2.17480  -1.26290    47    26    46    40
 C     1.14830   2.42870   1.49760    48    50    17    39
 C     3.15290   1.72150   0.39620    49    37    50    44
 C     2.13970   2.63710   0.53770    50    49    19    48
