    50
C50-Cs-262                                                                      
 C     1.31980   2.82190  -0.63970     1     4     2    26
 C     0.67420   3.05890   0.55120     2     3     1     8
 C    -0.69840   3.06910   0.54120     3     2    25     7
 C     2.43670   2.11650  -0.45540     4     1    32    14
 C    -3.02870   0.54280   1.19380     5    16     6    12
 C    -2.56600   1.80540   0.87320     6     5    22     7
 C    -1.41800   2.32650   1.49150     7    10     6     3
 C     1.41580   2.32390   1.48990     8     9     2    14
 C     0.69420   1.52730   2.38630     9    10     8    48
 C    -0.70340   1.52350   2.38720    10    11     9     7
 C    -1.12810   0.21990   2.64590    11    10    43    12
 C    -2.29720  -0.27730   2.06470    12    11    19     5
 C     3.04360   0.53620   1.19540    13    14    15    47
 C     2.57170   1.79650   0.88460    14    13     4     8
 C     3.46360  -0.27850   0.15620    15    50    13    31
 C    -3.45340  -0.27000   0.16180    16    17     5    20
 C    -3.06370  -1.54990   0.41940    17    18    16    19
 C    -2.57440  -2.06790  -0.72740    18    17    23    40
 C    -2.31690  -1.58730   1.56850    19    17    45    12
 C    -3.18680   0.02230  -1.17480    20    23    21    16
 C    -2.60610   1.22010  -1.47210    21    20    22    29
 C    -2.44770   2.14920  -0.46210    22    25    21     6
 C    -2.59400  -1.09900  -1.67380    23    18    20    27
 C    -0.68930   2.39250  -1.76950    24    26    25    29
 C    -1.34550   2.86670  -0.65680    25    22    24     3
 C     0.67560   2.36930  -1.77840    26    24     1    33
 C    -1.39320  -1.10990  -2.35550    27    23    41    28
 C    -0.72190   0.10730  -2.69350    28    27    29    34
 C    -1.41360   1.28810  -2.24490    29    24    21    28
 C     2.57620  -1.10360  -1.63870    30    38    31    35
 C     3.18470   0.03010  -1.17510    31    32    30    15
 C     2.59910   1.21630  -1.48810    32    31     4    33
 C     1.41090   1.28520  -2.25900    33    26    32    34
 C     0.72480   0.10280  -2.69480    34    35    33    28
 C     1.38360  -1.11080  -2.34170    35    30    42    34
 C     0.69380  -2.97010   0.40350    36    39    37    49
 C     1.39940  -2.74840  -0.78670    37    38    36    42
 C     2.58110  -2.08740  -0.70550    38    50    30    37
 C    -0.69430  -2.97110   0.40440    39    36    40    45
 C    -1.40010  -2.74340  -0.78550    40    18    39    41
 C    -0.68320  -2.22910  -1.87960    41    42    40    27
 C     0.67800  -2.23090  -1.87550    42    41    35    37
 C     0.00850  -0.58020   2.77530    43    11    48    44
 C     0.00270  -1.87230   2.22870    44    45    49    43
 C    -1.13600  -2.32770   1.58470    45    44    19    39
 C     2.32990  -1.57490   1.57660    46    50    49    47
 C     2.31400  -0.26960   2.08270    47    48    46    13
 C     1.14630   0.22620   2.65570    48    47    43     9
 C     1.15080  -2.32530   1.58190    49    44    46    36
 C     3.07860  -1.55750   0.43360    50    38    15    46
