    50
C50-C1-212                                                                      
 C     0.70860   3.05010   0.17390     1     2     4    30
 C    -0.47830   3.06380  -0.49900     2     3     1     5
 C    -1.67390   2.87330   0.07640     3     2     8    20
 C     1.93470   2.66100  -0.36030     4    32     1     7
 C    -0.54740   2.26840  -1.64990     5     6    13     2
 C     0.58560   1.62180  -2.05620     6     5     7    16
 C     1.84660   1.85430  -1.51380     7     6    49     4
 C    -2.59350   2.27790  -0.71740     8     9     3    13
 C    -3.42470   1.51390  -0.00980     9    10     8    19
 C    -3.75780   0.26820  -0.33630    10     9    15    12
 C    -1.97020   0.31700  -2.05920    11    13    12    17
 C    -3.03600  -0.34980  -1.38220    12    18    10    11
 C    -1.81500   1.69520  -1.71990    13     5     8    11
 C    -3.22580  -1.74450   0.31970    14    15    28    18
 C    -3.62870  -0.55500   0.75760    15    14    10    22
 C     0.48550   0.28560  -2.44180    16     6    42    17
 C    -0.75550  -0.43000  -2.38090    17    16    45    11
 C    -2.83600  -1.63880  -0.98960    18    12    46    14
 C    -2.78860   1.39790   1.21370    19    20    22     9
 C    -1.70320   2.20560   1.30150    20    19     3    21
 C    -0.52180   1.80690   1.92960    21    20    30    25
 C    -2.81360   0.11900   1.67460    22    19    15    24
 C    -1.38390  -1.76500   1.81860    23    28    35    24
 C    -1.60090  -0.41700   2.20590    24    23    22    25
 C    -0.41680   0.40980   2.39920    25    24    26    21
 C     0.92620  -0.18690   2.38810    26    27    36    25
 C     2.05960   0.62320   2.10930    27    29    34    26
 C    -2.21860  -2.39630   0.90390    28    14    41    23
 C     1.85810   1.87730   1.62270    29    30    27    32
 C     0.64870   2.41160   1.44620    30    29    21     1
 C     3.55390   1.07640   0.46130    31    32    34    48
 C     2.73680   2.13660   0.60520    32    31     4    29
 C     3.26260  -1.03410   0.97740    33    34    37    47
 C     3.19110   0.19220   1.45510    34    33    27    31
 C    -0.09310  -2.24760   1.61250    35    23    36    38
 C     1.08030  -1.56660   1.94930    36    35    37    26
 C     2.24970  -1.92550   1.20980    37    33    40    36
 C    -0.15050  -3.05580   0.43690    38    41    39    35
 C     0.90030  -2.97690  -0.41190    39    40    38    44
 C     2.11740  -2.60040   0.00400    40    39    50    37
 C    -1.40900  -2.95310  -0.00900    41    38    28    46
 C     1.75650  -0.25480  -2.20400    42    43    16    49
 C     1.86830  -1.58530  -1.84050    43    50    42    44
 C     0.67120  -2.27510  -1.63130    44    43    45    39
 C    -0.63210  -1.81560  -1.96120    45    46    44    17
 C    -1.69760  -2.34990  -1.22920    46    18    41    45
 C     3.62850  -1.00070  -0.35190    47    50    33    48
 C     3.62310   0.34030  -0.71340    48    31    47    49
 C     2.63710   0.70770  -1.65490    49     7    48    42
 C     2.83940  -1.92750  -0.92470    50    47    40    43
