    50
C50-C1-99                                                                       
 C     2.24110   2.19060   0.65280     1     4     2    34
 C     2.85820   1.16480   1.32730     2     3     1    11
 C     3.69470   0.35130   0.60830     3     7     2    33
 C     1.02770   2.58520   1.08000     4     5     1     9
 C     0.24550   2.93180   0.04880     5     4    49    37
 C     2.39520  -0.91680   1.88720     6     7     8    11
 C     3.41600  -0.93800   0.97270     7    14     3     6
 C     1.35260  -1.81020   1.76760     8     6    23    12
 C     0.22720   1.98660   2.01790     9     4    45    10
 C     0.68900   0.75760   2.54870    10     9    11    22
 C     2.02840   0.40290   2.19190    11     6     2    10
 C     1.25640  -2.56380   0.58170    12    15    13     8
 C     2.19230  -2.37080  -0.40680    13    12    14    30
 C     3.37550  -1.69630  -0.16300    14    25     7    13
 C    -0.08340  -2.72100   0.32170    15    12    19    16
 C    -0.64500  -2.49160  -0.97200    16    17    15    29
 C    -2.00890  -2.19250  -0.97220    17    31    20    16
 C    -2.13540  -1.97300   1.32920    18    19    24    20
 C    -0.81930  -2.28770   1.43440    19    18    23    15
 C    -2.81870  -2.07580   0.14910    20    18    43    17
 C    -1.68670   0.06380   2.42060    21    24    46    22
 C    -0.32020  -0.25160   2.66850    22    21    23    10
 C     0.07350  -1.54260   2.20890    23     8    19    22
 C    -2.58780  -0.81930   1.88530    24    18    42    21
 C     3.60800  -0.86320  -1.19110    25    26    14    33
 C     2.53250  -0.92010  -1.99170    26    25    30    36
 C    -1.60330  -0.37420  -2.38900    27    39    31    28
 C    -0.22960  -0.60570  -2.48100    28    27    29    35
 C     0.27650  -1.83580  -1.87520    29    30    16    28
 C     1.64660  -1.90060  -1.62190    30    26    29    13
 C    -2.51090  -1.20950  -1.78090    31    17    27    44
 C     2.85100   1.18680  -1.42620    32    34    33    36
 C     3.79110   0.41170  -0.76920    33    25     3    32
 C     2.17270   2.18040  -0.76290    34    32    37     1
 C     0.65370   0.56330  -2.45950    35    36    38    28
 C     2.02610   0.34410  -2.21440    36    26    35    32
 C     0.87550   2.53710  -1.10560    37     5    34    38
 C     0.06440   1.81110  -2.00420    38    40    37    35
 C    -2.14580   0.85300  -2.12270    39    40    41    27
 C    -1.32600   1.86740  -1.77860    40    39    38    48
 C    -3.28090   0.74430  -1.37630    41    44    39    47
 C    -3.54430  -0.26740   1.08860    42    24    43    50
 C    -3.78000  -1.09200   0.00630    43    44    42    20
 C    -3.60460  -0.56950  -1.22390    44    43    41    31
 C    -1.09600   2.19400   1.62130    45    46     9    49
 C    -2.09620   1.29140   1.87060    46    45    21    50
 C    -3.07290   1.61910  -0.31440    47    41    48    50
 C    -1.94220   2.39140  -0.61200    48    49    47    40
 C    -1.06180   2.79160   0.34920    49     5    48    45
 C    -3.17390   1.07030   0.98020    50    42    47    46
