    50
C50-C1-66                                                                       
 C    -2.57170   2.11090   0.08850     1     4     2    33
 C    -3.07560   1.17130   0.96320     2     3     1    10
 C    -3.76440   0.10810   0.43400     3     6     2    32
 C    -1.47680   2.79990   0.43820     4     1    42     8
 C    -2.36580  -0.66530   1.95880     5     6     7    10
 C    -3.35480  -1.02480   1.08190     6    13     3     5
 C    -1.22760  -1.42550   2.05290     7     5    22    11
 C    -0.66840   2.49530   1.52830     8    46     4     9
 C    -0.90400   1.31390   2.23580     9     8    10    21
 C    -2.17500   0.71550   1.96990    10     5     2     9
 C    -1.02330  -2.45600   1.12120    11    14    12     7
 C    -1.94800  -2.61880   0.11300    12    11    13    29
 C    -3.19700  -2.02540   0.16530    13    24     6    12
 C     0.32360  -2.55090   0.93350    14    11    18    15
 C     0.91490  -2.64320  -0.35700    15    16    14    28
 C     2.25650  -2.31970  -0.42240    16    30    15    19
 C     2.28170  -1.39240   1.65660    17    18    19    23
 C     0.98820  -1.73770   1.85410    18    17    22    14
 C     3.05610  -1.91830   0.65310    19    45    17    16
 C     1.62120   0.89750   2.11930    20    47    23    21
 C     0.26640   0.48670   2.49560    21    22     9    20
 C     0.01580  -0.90660   2.38220    22    18     7    21
 C     2.63490  -0.04790   1.80860    23    17    48    20
 C    -3.45880  -1.46810  -1.03210    24    25    13    32
 C    -2.32710  -1.57780  -1.74590    25    24    29    35
 C     1.77830  -0.78640  -2.08940    26    30    27    38
 C     0.42180  -1.09680  -2.16770    27    26    34    28
 C    -0.02080  -2.24770  -1.38080    28    29    15    27
 C    -1.38650  -2.37400  -1.15780    29    25    28    12
 C     2.73990  -1.53650  -1.44390    30    44    16    26
 C    -2.89010   0.55200  -1.68210    31    33    32    35
 C    -3.79610  -0.16050  -0.92200    32    24    31     3
 C    -2.36660   1.74410  -1.27010    33    31    36     1
 C    -0.54620  -0.04000  -2.39840    34    35    27    37
 C    -1.91480  -0.33940  -2.19590    35    25    34    31
 C    -1.08400   2.17280  -1.61070    36    42    33    37
 C    -0.08730   1.32400  -2.18980    37    36    39    34
 C     2.23900   0.53690  -1.96800    38    39    43    26
 C     1.30630   1.56470  -1.87090    39    38    40    37
 C     1.62000   2.48590  -0.81770    40    41    50    39
 C     0.57440   3.06440  -0.21260    41    42    40    46
 C    -0.66940   3.00960  -0.61720    42    41     4    36
 C     3.43200   0.44260  -1.24400    43    44    49    38
 C     3.81600  -0.83150  -1.03110    44    45    43    30
 C     4.00650  -1.02740   0.28160    45    44    19    48
 C     0.60190   2.76710   1.10540    46    47    41     8
 C     1.73020   2.08030   1.35250    47    46    20    50
 C     3.68630   0.14700   0.89760    48    45    49    23
 C     3.45490   1.13800  -0.03920    49    50    48    43
 C     2.53070   2.09270   0.17940    50    49    40    47
