    50
C50-C2-80                                                                       
 C     1.52370  -1.00630   2.06850     1     2     3    40
 C     2.77760  -1.26350   1.60550     2     9     1    29
 C     0.37820  -1.70460   1.67010     3     1     6    10
 C    -2.26160   0.77820   2.01130     4    41    49     5
 C    -1.01580   0.20040   2.32210     5     4    39     6
 C    -0.90650  -1.21490   1.98470     6     3     7     5
 C    -2.05360  -1.78630   1.39310     7    50     6    21
 C     3.93370  -1.45210  -0.16390     8     9    12    31
 C     3.00940  -2.09920   0.57330     9     8     2    11
 C     0.56100  -2.43420   0.41980    10    11    22     3
 C     1.85480  -2.39290  -0.12000    11     9    10    14
 C     3.27830  -1.18470  -1.32370    12    13     8    14
 C     3.38550   0.12050  -1.59480    13    12    15    24
 C     2.02350  -1.75930  -1.36930    14    12    17    11
 C     2.26820   0.80870  -1.99810    15    26    13    16
 C     1.01750   0.22720  -2.30120    16    15    28    17
 C     0.89350  -1.18590  -1.96760    17    14    18    16
 C    -0.37940  -1.68320  -1.65120    18    20    17    22
 C    -2.75990  -1.23790  -1.57740    19    23    20    44
 C    -1.51240  -0.97110  -2.04180    20    19    18    27
 C    -1.86870  -2.38540   0.12100    21    23    22     7
 C    -0.57400  -2.42410  -0.40890    22    21    10    18
 C    -3.03090  -2.07070  -0.55110    23    19    48    21
 C     4.09240   0.72960  -0.57580    24    25    31    13
 C     3.26590   1.79510  -0.30760    25    26    24    32
 C     2.28520   1.95120  -1.24810    26    37    15    25
 C    -1.43700   0.41050  -2.24740    27    20    28    45
 C    -0.17760   1.01940  -2.19080    28    27    16    36
 C     3.53470  -0.13000   1.48600    29     2    30    31
 C     2.65490   0.89610   1.76910    30    29    32    40
 C     4.34590  -0.23900   0.37200    31    24    29     8
 C     2.54090   1.93520   0.86170    32    25    30    33
 C     1.26820   2.41870   0.58720    33    32    34    37
 C     0.12170   2.12930   1.32660    34    35    33    39
 C    -1.10200   2.38760   0.73710    35    41    34    38
 C    -0.11490   2.22510  -1.38820    36    37    38    28
 C     1.11860   2.47520  -0.81680    37    26    36    33
 C    -1.28500   2.47950  -0.66400    38    46    36    35
 C     0.18420   0.97600   2.19430    39    40     5    34
 C     1.43920   0.37900   2.25540    40    39     1    30
 C    -2.25740   1.87290   1.19320    41    35    42     4
 C    -3.23930   1.78510   0.26910    42    41    43    46
 C    -4.02160   0.70620   0.58430    43    42    47    49
 C    -3.51560  -0.11100  -1.47470    44    19    45    47
 C    -2.66420   0.93290  -1.79480    45    46    44    27
 C    -2.56990   1.99280  -0.92200    46    45    42    38
 C    -4.31870  -0.26270  -0.34930    47    43    48    44
 C    -3.97270  -1.47490   0.21400    48    23    50    47
 C    -3.39000   0.08050   1.64530    49    50     4    43
 C    -3.33030  -1.23630   1.38760    50    49    48     7
