    50
C50-Cs-253                                                                      
 C    -3.43740   0.52800   0.00380     1     2    28     3
 C    -2.94690   1.63720  -0.60040     2     1    36     7
 C    -3.02360   0.61070   1.29910     3     8     4     1
 C    -2.36000  -0.41050   1.89270     4     3     5    13
 C    -2.31750  -1.64490   1.29480     5     4    11    27
 C    -1.14950   3.10500  -0.03120     6     7     9    21
 C    -2.32040   2.48250   0.31010     7     8     6     2
 C    -2.33280   1.75760   1.46990     8     3     7    20
 C    -0.66730   2.85560  -1.29920     9    50    35     6
 C     1.20750  -2.46240   1.41880    10    23    17    12
 C    -1.20810  -2.47480   1.42910    11    25     5    12
 C    -0.00030  -1.98780   2.03590    12    11    10    15
 C    -1.19500   0.12350   2.47350    13     4    15    20
 C     1.18940   0.12520   2.46070    14    16    15    19
 C    -0.00060  -0.63290   2.54640    15    14    13    12
 C     2.34920  -0.40270   1.87750    16    40    17    14
 C     2.32160  -1.63470   1.27610    17    16    10    43
 C     2.30920   1.75550   1.45230    18    40    47    19
 C     1.17450   1.52720   2.19430    19    18    22    14
 C    -1.19280   1.52780   2.20390    20     8    22    13
 C    -0.00050   3.08800   0.79320    21     6    45    22
 C    -0.00820   2.22880   1.94760    22    19    20    21
 C     1.16080  -3.25370   0.27550    23    24    44    10
 C    -0.00830  -3.54010  -0.28250    24    25    23    29
 C    -1.17340  -3.24490   0.27200    25    24    26    11
 C    -1.99790  -2.63990  -0.61510    26    27    25    30
 C    -2.82630  -1.75540  -0.03910    27    26    28     5
 C    -3.17730  -0.60210  -0.70770    28     1    27    33
 C     0.00280  -2.86960  -1.47900    29    37    30    24
 C    -1.20400  -2.27300  -1.70990    30    29    26    32
 C    -0.00120  -0.31530  -2.56830    31    34    32    39
 C    -1.27050  -0.98170  -2.25580    32    30    33    31
 C    -2.36820  -0.18140  -1.80190    33    36    28    32
 C     0.00220   1.10840  -2.49100    34    49    35    31
 C    -1.13780   1.83020  -2.09180    35    36     9    34
 C    -2.29130   1.20980  -1.74410    36    35     2    33
 C     1.20740  -2.27590  -1.69350    37    29    44    39
 C     2.36910  -0.19170  -1.77400    38    48    42    39
 C     1.26450  -0.98020  -2.23810    39    37    38    31
 C     3.01370   0.61800   1.27530    40    18    41    16
 C     3.46390   0.53030  -0.00300    41    46    40    42
 C     3.21000  -0.61550  -0.69820    42    41    43    38
 C     2.83710  -1.77360  -0.04540    43    44    42    17
 C     2.00570  -2.65290  -0.61310    44    43    23    37
 C     1.15680   3.11950  -0.02990    45    47    50    21
 C     2.96770   1.64400  -0.59890    46    41    48    47
 C     2.32900   2.49490   0.29400    47    45    18    46
 C     2.28450   1.20260  -1.72100    48    49    46    38
 C     1.12750   1.82950  -2.06890    49    48    50    34
 C     0.66020   2.86090  -1.29180    50     9    49    45
