    50
C50-C1-23                                                                       
 C     3.05040   0.72490   1.67570     1     4    36     2
 C     2.75600  -0.61240   1.82320     2     1     3     8
 C     3.24110  -1.47050   0.84270     3     7     2    31
 C     1.90650   1.40480   1.93510     4     1    15    38
 C    -2.00260   2.12530   0.83330     5    16     6    43
 C    -0.72520   2.09550   1.39240     6     5    40    14
 C     2.27000  -2.31430   0.38970     7    17    13     3
 C     1.40640  -0.68500   2.27870     8    15    12     2
 C    -2.77360   0.16130   1.81300     9    16    28    10
 C    -1.44080  -0.11380   2.22640    10     9    14    11
 C    -0.91760  -1.45500   1.96160    11    30    12    10
 C     0.48800  -1.68730   1.91660    12     8    13    11
 C     1.00840  -2.48600   0.87570    13     7    23    12
 C    -0.45070   0.93060   2.23110    14    15    10     6
 C     0.89150   0.61280   2.38090    15     4    14     8
 C    -3.07890   1.36530   1.20460    16     5    50     9
 C     2.21120  -2.27490  -0.96550    17    18     7    24
 C     3.09790  -1.36410  -1.35290    18    17    20    31
 C     0.54420   0.97580  -2.26490    19    48    34    21
 C     2.56120  -0.29710  -2.02420    20    18    33    21
 C     1.18580  -0.27190  -2.41960    21    19    20    27
 C    -1.12570  -2.55840  -0.11570    22    23    30    25
 C     0.18840  -2.70570  -0.21440    23    22    13    24
 C     0.90630  -2.35770  -1.34870    24    17    23    27
 C    -1.87350  -2.04500  -1.17270    25    44    22    26
 C    -1.14760  -1.21620  -2.07680    26    25    27    47
 C     0.28350  -1.38410  -2.18380    27    24    26    21
 C    -3.66290  -0.73300   1.21180    28    29    49     9
 C    -2.99540  -1.77500   0.70770    29    28    30    44
 C    -1.75660  -2.16570   1.06000    30    29    22    11
 C     3.88340  -0.93280  -0.28740    31    32    18     3
 C     4.03570   0.42260  -0.39080    32    31    36    33
 C     3.18270   0.78430  -1.42620    33    35    20    32
 C     1.18170   2.00030  -1.53470    34    35    39    19
 C     2.46900   1.89840  -1.10360    35    34    33    37
 C     3.69920   1.29160   0.61110    36    32     1    37
 C     2.79360   2.23910   0.18760    37    35    36    38
 C     1.70470   2.41190   1.03300    38     4    37    40
 C     0.17030   2.55180  -0.75440    39    41    34    40
 C     0.38730   2.63740   0.64990    40    38    39     6
 C    -1.04580   2.18960  -1.25570    41    43    39    48
 C    -3.30320   1.50580  -0.83530    42    50    43    46
 C    -2.19410   2.23950  -0.54830    43    41    42     5
 C    -3.08420  -1.70150  -0.64970    44    45    29    25
 C    -3.82340  -0.61160  -0.91510    45    44    49    46
 C    -3.05350   0.34100  -1.58320    46    45    42    47
 C    -1.77120   0.08590  -2.16600    47    48    46    26
 C    -0.82450   1.12040  -2.13230    48    19    41    47
 C    -4.40300  -0.08440   0.22900    49    50    45    28
 C    -4.05260   1.19020   0.25520    50    49    42    16
