    50
C50-C2v-13                                                                      
 C    -1.14850   2.65740  -0.12350     1     2    30     6
 C    -2.41080   2.33030  -0.46930     2     1     5    29
 C    -0.68130  -2.11230   1.07670     3    15     4    25
 C    -1.47580  -1.16900   1.71970     4     3    22     9
 C    -3.43060   1.95850   0.39260     5    19     2     8
 C    -0.67970   2.12910   1.08470     6    10     7     1
 C    -1.47760   1.19020   1.72480     7     6     8     9
 C    -2.83740   1.15930   1.39050     8    21     7     5
 C    -0.72240   0.01100   2.04760     9     7     4    12
 C     0.68130   2.13220   1.08370    10     6    11    38
 C     1.47830   1.18800   1.71990    11    10    17    12
 C     0.72680   0.00670   2.04140    12    14    11     9
 C     2.83360  -1.15120   1.37830    13    18    14    16
 C     1.47030  -1.17230   1.70410    14    15    13    12
 C     0.68040  -2.12020   1.06290    15     3    14    48
 C     3.41730  -1.97390   0.38570    16    49    47    13
 C     2.83650   1.16940   1.37740    17    18    11    39
 C     3.58020   0.00810   1.36570    18    13    17    50
 C    -4.39070   1.14520  -0.14150    19     5    20    28
 C    -4.66480  -0.01300   0.53230    20    23    19    21
 C    -3.56750  -0.00430   1.37820    21    22     8    20
 C    -2.83760  -1.16710   1.38930    22    21     4    24
 C    -4.37070  -1.16830  -0.13600    23    20    24    27
 C    -3.41440  -1.98970   0.39840    24    23    26    22
 C    -1.15190  -2.66750  -0.12260    25    26    33     3
 C    -2.40650  -2.32850  -0.48670    26    25    24    32
 C    -3.61960  -0.65770  -1.17750    27    28    32    23
 C    -3.62210   0.68310  -1.18740    28    27    29    19
 C    -2.44590   1.32930  -1.44200    29    28     2    36
 C     0.00680   2.53260  -0.86690    30    38     1    31
 C    -0.00520   1.39240  -1.75230    31    36    41    30
 C    -2.44690  -1.31550  -1.43740    32    27    26    35
 C     0.00460  -2.54300  -0.86800    33    48    25    34
 C    -0.00770  -1.39210  -1.74660    34    35    42    33
 C    -1.24950  -0.71630  -1.90590    35    32    34    36
 C    -1.24900   0.72650  -1.90960    36    29    31    35
 C     2.40880   2.35310  -0.47400    37    38    39    40
 C     1.15250   2.67800  -0.11860    38    37    30    10
 C     3.43350   1.97110   0.38660    39    43    37    17
 C     2.43540   1.32430  -1.41730    40    46    37    41
 C     1.24020   0.71940  -1.88950    41    40    31    42
 C     1.24240  -0.72620  -1.88550    42    44    34    41
 C     4.39290   1.15120  -0.13970    43    39    50    46
 C     2.43530  -1.33060  -1.40560    44    45    47    42
 C     3.60400  -0.66570  -1.16090    45    46    44    49
 C     3.60610   0.66800  -1.16400    46    45    40    43
 C     2.41230  -2.37310  -0.48040    47    48    16    44
 C     1.15440  -2.69550  -0.12390    48    47    33    15
 C     4.39000  -1.15110  -0.13860    49    50    16    45
 C     4.68800  -0.00750   0.53450    50    49    43    18
