    50
C50-C1-60                                                                       
 C    -0.32380   2.16110  -1.83550     1    28     6     2
 C     0.91420   1.50010  -2.04090     2     1     9     3
 C     2.03720   2.01560  -1.30520     3    24     4     2
 C     3.01170   1.15540  -0.80900     4     5     3    20
 C     3.15970  -0.13000  -1.26010     5     4    16    10
 C    -1.54400   1.48150  -1.81360     6     1     7    31
 C    -1.62830   0.10180  -2.02690     7     6    13     8
 C    -0.39110  -0.61570  -2.20460     8     7    12     9
 C     0.88870   0.08590  -2.27640     9    10     2     8
 C     2.05750  -0.65220  -1.96150    10    19     5     9
 C    -1.46910  -2.38560  -0.92450    11    14    12    48
 C    -0.36310  -1.94860  -1.62460    12    18    11     8
 C    -2.76460  -0.51980  -1.46810    13    14     7    15
 C    -2.68230  -1.79540  -0.97290    14    11    49    13
 C    -3.73810   0.10090  -0.65330    15    50    30    13
 C     3.65940  -1.13320  -0.42580    16    17    22     5
 C     2.98430  -2.27610  -0.70160    17    19    42    16
 C     0.83070  -2.49770  -1.23760    18    19    12    41
 C     2.01650  -1.96050  -1.57170    19    17    18    10
 C     3.05530   1.40140   0.58790    20    21    23     4
 C     2.20520   2.40900   0.81060    21    20    24    26
 C     3.38820  -0.93200   0.90230    22    23    43    16
 C     2.98450   0.27420   1.37540    23    22    20    32
 C     1.76240   2.97950  -0.34820    24    25    21     3
 C     0.54950   3.48520  -0.15120    25    24    28    27
 C     1.08860   2.29980   1.63220    26    27    21    33
 C     0.11640   3.05640   1.06660    27    36    26    25
 C    -0.47930   3.22720  -0.96210    28    25    29     1
 C    -1.61570   2.98460  -0.27250    29    28    31    36
 C    -3.27380   1.30400  -0.18310    30    31    15    37
 C    -2.43460   2.10690  -0.89420    31    29    30     6
 C     1.76680   0.06180   2.08140    32    46    33    23
 C     0.75720   1.03990   2.18080    33    32    26    34
 C    -0.62710   0.60940   2.19540    34    33    38    35
 C    -1.63180   1.52250   1.63820    35    37    36    34
 C    -1.18770   2.70100   1.03140    36    27    35    29
 C    -2.79560   0.96620   1.10980    37    40    35    30
 C    -0.92860  -0.82270   2.10390    38    39    45    34
 C    -2.21220  -1.22760   1.67730    39    40    47    38
 C    -3.16970  -0.32180   1.26430    40    37    50    39
 C     1.00570  -3.08470   0.05600    41    42    44    18
 C     2.32060  -2.81020   0.35210    42    43    17    41
 C     2.51920  -1.89210   1.32200    43    42    22    46
 C    -0.08440  -2.83210   0.91570    44    48    41    45
 C     0.15180  -1.75170   1.88070    45    46    38    44
 C     1.47170  -1.29970   1.98020    46    43    32    45
 C    -2.49320  -2.39670   0.95990    47    48    49    39
 C    -1.36120  -2.89860   0.39260    48    47    44    11
 C    -3.49270  -2.01860   0.09660    49    50    14    47
 C    -4.01390  -0.82520   0.31540    50    49    40    15
