    50
C50-C2-24                                                                       
 C     4.04690  -1.21550   0.20700     1    38     2     5
 C     3.04990  -1.97940  -0.29870     2     1    13    41
 C    -1.03490  -2.00570  -1.34050     3    31     4    48
 C     0.33380  -2.14440  -1.09940     4     3    40    12
 C     3.47240  -0.70250   1.32890     5     1     8     6
 C     3.47470   0.67770   1.26090     6     5     7    17
 C     2.30520   1.30740   1.67620     7     6    18    11
 C     2.30560  -1.36020   1.65450     8     5    10    13
 C    -0.04620  -1.28850   2.12020     9    10    22    14
 C     1.22410  -0.74340   2.27800    10     9     8    11
 C     1.24730   0.66460   2.32720    11    24     7    10
 C     0.74130  -2.51420   0.23790    12    13    14     4
 C     2.04620  -2.25350   0.58890    13     2    12     8
 C    -0.30170  -2.26760   1.14620    14    49     9    12
 C     3.20520   1.62700  -0.78210    15    27    16    17
 C     2.06620   2.28560  -0.41840    16    15    18    36
 C     4.08270   0.95020   0.03060    17    15    38     6
 C     1.63300   2.23240   0.88210    18    16    19     7
 C     0.29360   2.26780   1.18370    19    18    24    20
 C    -0.72830   2.46410   0.23770    20    21    19    35
 C    -2.03580   2.18870   0.60110    21    37    20    25
 C    -1.24940  -0.59720   2.27900    22    44     9    23
 C    -1.23990   0.81120   2.33830    23    24    25    22
 C     0.03450   1.34460   2.20770    24    23    11    19
 C    -2.35180   1.39100   1.72690    25    46    23    21
 C     1.56610   0.97160  -2.10780    26    27    36    28
 C     2.88920   0.81580  -1.82060    27    39    15    26
 C     0.70340  -0.11290  -2.33950    28    26    29    40
 C    -0.68760   0.10460  -2.33550    29    31    28    33
 C    -2.86860  -0.84680  -1.79600    30    34    31    47
 C    -1.55620  -0.96820  -2.11420    31    30     3    29
 C    -2.61840   1.37000  -1.48500    32    34    37    33
 C    -1.25330   1.35740  -1.84120    33    32    35    29
 C    -3.51640   0.32220  -1.62760    34    30    42    32
 C    -0.31580   2.14810  -1.10810    35    36    33    20
 C     1.04390   2.01530  -1.33820    36    35    26    16
 C    -3.04420   1.92590  -0.28680    37    43    21    32
 C     4.42000  -0.22010  -0.62040    38     1    39    17
 C     3.55110  -0.34920  -1.67900    39    27    38    41
 C     1.28390  -1.36350  -1.84790    40    41     4    28
 C     2.65750  -1.40010  -1.50500    41    39     2    40
 C    -4.41550   0.23900  -0.58830    42    43    34    50
 C    -4.08550   1.23150   0.25150    43    42    46    37
 C    -2.28840  -1.25830   1.62170    44    45    22    49
 C    -3.47340  -0.63980   1.22340    45    46    44    50
 C    -3.52580   0.73610   1.38010    46    43    45    25
 C    -3.24490  -1.69570  -0.80650    47    30    50    48
 C    -2.07940  -2.32450  -0.44810    48    49    47     3
 C    -1.63860  -2.22080   0.84510    49    48    14    44
 C    -4.08010  -0.97520   0.00340    50    47    42    45
