    50
C50-C1-155                                                                      
 C     1.99000   2.59020  -0.64950     1     2     6    11
 C     2.81600   1.53070  -0.52400     2     1    16     3
 C     2.78390   0.43730  -1.42820     3    35     2     4
 C     1.58730   0.21730  -2.19760     4     5     3     7
 C     0.72610   1.31310  -2.23320     5     6     4    50
 C     0.99720   2.47920  -1.57390     6    12     1     5
 C     0.98880  -1.10410  -2.19540     7     9     4     8
 C    -0.46440  -1.22050  -2.23920     8    10     7    49
 C     1.74690  -2.11110  -1.50230     9    34    37     7
 C    -1.06800  -2.32410  -1.55830    10    46    36     8
 C     1.36340   3.21940   0.39490    11     1    13    14
 C    -0.10720   3.11290  -1.15870    12     6    13    42
 C     0.10160   3.67410   0.06410    13    22    12    11
 C     1.27670   2.38360   1.51180    14    19    15    11
 C     2.01160   1.21560   1.71300    15    14    16    20
 C     3.02260   0.94590   0.74220    16    17     2    15
 C     3.46540  -0.29700   0.51820    17    16    18    35
 C     3.04310  -1.36730   1.21850    18    17    24    21
 C    -0.05590   2.42010   1.78770    19    31    14    22
 C     1.30910   0.03180   2.24330    20    21    32    15
 C     1.87360  -1.22910   1.93850    21    18    28    20
 C    -0.78810   3.23640   0.96980    22    13    19    45
 C     1.73420  -2.96430   0.54350    23    24    37    28
 C     2.91530  -2.38950   0.34500    24    23    18    34
 C    -2.26350  -2.58700   0.25010    25    29    26    46
 C    -1.00090  -2.91860   0.57060    26    25    36    27
 C    -0.32780  -2.25740   1.64700    27    28    26    30
 C     1.05590  -2.31710   1.59060    28    27    21    23
 C    -3.01770  -1.70680   0.92310    29    25    38    33
 C    -0.97100  -1.07210   2.16210    30    33    27    32
 C    -0.75960   1.33550   2.18770    31    19    39    32
 C    -0.13570   0.08840   2.41940    32    31    30    20
 C    -2.32930  -0.85240   1.75460    33    29    41    30
 C     2.97620  -1.87690  -0.90840    34    35    24     9
 C     3.38550  -0.61300  -0.81380    35    34     3    17
 C    -0.28350  -3.01080  -0.63510    36    37    10    26
 C     1.04200  -2.96690  -0.63880    37    36    23     9
 C    -3.73150  -0.96090   0.03090    38    40    47    29
 C    -2.03080   1.49710   1.63730    39    41    31    45
 C    -3.60330   0.33550   0.29210    40    38    41    43
 C    -2.81500   0.42380   1.43370    41    39    40    33
 C    -1.17220   2.31390  -1.50260    42    12    44    50
 C    -3.01040   0.98580  -0.79060    43    44    40    48
 C    -2.25540   2.13560  -0.61750    44    43    42    45
 C    -1.95640   2.56380   0.71420    45    22    39    44
 C    -2.32890  -2.25200  -1.06600    46    47    10    25
 C    -3.15180  -1.20740  -1.17660    47    46    38    48
 C    -2.60840  -0.05640  -1.68040    48    47    49    43
 C    -1.31000  -0.02540  -2.27240    49    50    48     8
 C    -0.66820   1.20390  -2.23750    50    49     5    42
