    50
C50-C1-113                                                                      
 C     1.54060  -1.45830  -1.97910     1     6     2    26
 C     0.19830  -1.26940  -2.25640     2     1     3     7
 C    -0.70060  -2.15380  -1.63500     3     4     2    27
 C    -2.05350  -1.85020  -1.47010     4     5    17     3
 C    -2.58180  -0.66510  -1.88090     5     4    10     8
 C     2.45310  -0.44800  -2.08520     6     9     1    12
 C    -0.28220   0.06930  -2.54110     7     8     2    13
 C    -1.66640   0.29620  -2.38090     8    14     7     5
 C     3.52850  -0.62680  -1.31930     9     6    50    33
 C    -3.52370  -0.00800  -1.08530    10    11    15     5
 C    -3.23050   1.28040  -1.21230    11    10    14    21
 C     1.99590   0.85030  -2.03820    12     6    13    45
 C     0.63780   1.17480  -2.25890    13    12    48     7
 C    -2.14890   1.50690  -1.95580    14    11    49     8
 C    -3.56700  -0.31410   0.27170    15    16    10    18
 C    -3.07040  -1.52870   0.67750    16    25    15    17
 C    -2.41480  -2.34890  -0.24230    17    23     4    16
 C    -3.12360   0.85880   0.95550    18    21    15    19
 C    -2.13630   0.78590   1.98830    19    24    20    18
 C    -1.12960   1.77630   1.97360    20    19    34    44
 C    -3.00440   1.84850  -0.02460    21    11    42    18
 C    -1.22550  -2.47600   1.52990    22    23    25    29
 C    -1.33420  -2.95170   0.28580    23    22    17    27
 C    -1.70070  -0.49540   2.37180    24    25    19    36
 C    -2.22540  -1.59170   1.75470    25    22    24    16
 C     2.03070  -2.27790  -0.92300    26    33    28     1
 C    -0.24010  -2.91600  -0.51740    27    23    28     3
 C     1.06710  -2.75780  -0.02780    28    26    27    31
 C    -0.04140  -2.02970   2.01730    29    22    31    36
 C     2.22890  -1.36510   1.60920    30    32    31    37
 C     1.17910  -2.26390   1.35590    31    30    29    28
 C     3.25480  -1.18440   0.71750    32    33    30    40
 C     3.21270  -1.68190  -0.53090    33    32     9    26
 C     0.20390   1.50570   2.35850    34    41    35    20
 C     0.66000   0.21050   2.64450    35    36    34    37
 C    -0.32570  -0.77230   2.61440    36    35    29    24
 C     1.96690  -0.10980   2.20270    37    30    35    39
 C     2.22990   1.98040   1.14890    38    41    39    46
 C     2.82920   0.80110   1.54160    39    40    38    37
 C     3.62830   0.13670   0.66500    40    39    32    50
 C     1.01620   2.31780   1.61360    41    43    38    34
 C    -1.90090   2.65280  -0.10670    42    44    21    49
 C     0.26990   2.93180   0.70320    43    41    44    47
 C    -1.04040   2.73260   0.93230    44    43    42    20
 C     2.86670   1.47620  -1.10210    45    46    50    12
 C     2.19230   2.30730  -0.23930    46    45    47    38
 C     0.91150   2.79280  -0.50880    47    43    46    48
 C     0.09260   2.33000  -1.56760    48    49    47    13
 C    -1.29930   2.40680  -1.38710    49    14    48    42
 C     3.77000   0.51800  -0.65340    50     9    40    45
