    50
C50-C1-244                                                                      
 C    -2.18260   2.40360   0.92240     1     2    24     4
 C    -2.99020   1.33100   1.04930     2     1     3    30
 C    -3.40670   0.91400  -0.18220     3    49     7     2
 C    -2.01580   2.67660  -0.43060     4     5     7     1
 C    -0.76210   3.00680  -0.83750     5     4     6    16
 C     0.23430   3.24240   0.07180     6     8     5    23
 C    -2.68850   1.67540  -1.05830     7     4     3    14
 C     1.43370   2.91610  -0.37870     8     6     9    11
 C     2.23230   2.35730   0.58860     9    10     8    22
 C     3.16470   1.43040   0.22580    10     9    17    13
 C     1.25160   2.28900  -1.60640    11    12     8    16
 C     2.07500   1.23950  -1.89140    12    11    13    46
 C     3.11270   0.91470  -1.06210    13    18    12    10
 C    -2.07800   0.83820  -1.96830    14     7    42    15
 C    -0.73870   1.06980  -2.39120    15    14    16    45
 C    -0.12500   2.24680  -1.85340    16    11     5    15
 C     3.33050   0.31600   1.00330    17    10    19    20
 C     3.30430  -0.41240  -1.03230    18    13    19    38
 C     3.57760  -0.80670   0.23160    19    28    18    17
 C     2.37960   0.00700   1.96850    20    25    17    21
 C     1.29590   0.83780   2.30260    21    20    22    26
 C     1.30330   2.11230   1.64730    22    23     9    21
 C     0.10900   2.76970   1.36900    23    24     6    22
 C    -1.09680   2.27290   1.75570    24    23     1    27
 C     2.16740  -1.33210   1.77070    25    32    28    20
 C    -0.00040   0.21370   2.57490    26    27    33    21
 C    -1.17610   0.99240   2.32820    27    24    30    26
 C     2.87560  -1.83190   0.71510    28    19    25    41
 C    -2.48910  -0.90740   1.63530    29    30    31    48
 C    -2.39860   0.43530   1.90000    30     2    29    27
 C    -1.40040  -1.72520   1.91820    31    34    29    33
 C     0.96890  -1.93470   1.90860    32    25    33    35
 C    -0.15600  -1.22420   2.38300    33    32    31    26
 C    -1.45370  -2.73520   0.98500    34    47    37    31
 C     0.91330  -2.89010   0.86290    35    37    41    32
 C    -0.57210  -3.06310  -0.94370    36    50    37    39
 C    -0.31370  -3.21210   0.39110    37    35    36    34
 C     2.28780  -1.01210  -1.77070    38    18    40    46
 C     0.33260  -2.38120  -1.72900    39    36    40    44
 C     1.65890  -2.19760  -1.32880    40    39    38    41
 C     1.99780  -2.61370   0.00960    41    28    35    40
 C    -2.57510  -0.43990  -1.69840    42    43    14    49
 C    -1.76990  -1.53490  -1.94540    43    50    42    44
 C    -0.43470  -1.35300  -2.35180    44    43    45    39
 C     0.12100  -0.07450  -2.59710    45    46    44    15
 C     1.50890   0.03810  -2.34470    46    12    45    38
 C    -2.44530  -2.48580   0.08870    47    50    34    48
 C    -3.13580  -1.36660   0.44180    48    47    49    29
 C    -3.39800  -0.39580  -0.53010    49     3    48    42
 C    -1.83600  -2.61400  -1.11280    50    36    47    43
