    50
C50-Cs-247                                                                      
 C     2.65170  -2.11210  -0.48650     1    28     5     2
 C     1.41690  -2.73020  -0.32460     2     1    14     3
 C     0.72510  -2.68660   0.93210     3    16     2     4
 C     1.42810  -1.88770   1.89730     4    27    33     3
 C     2.53910  -1.29190  -1.57000     5     8     1     6
 C     3.05990  -0.04190  -1.28120     6     5    25     7
 C     2.33460   1.08640  -1.70880     7     6    19    10
 C     1.37180  -1.50580  -2.20520     8     5     9    14
 C     0.68660  -0.42460  -2.73050     9     8    47    10
 C     1.14640   0.87430  -2.49180    10     9    11     7
 C    -0.00640   1.67810  -2.40000    11    12    10    41
 C    -0.01950   2.75520  -1.55590    12    11    22    18
 C    -0.68770  -2.47740  -1.49390    13    14    17    46
 C     0.67390  -2.48220  -1.48780    14    13     8     2
 C    -1.38990  -1.87970   1.87980    15    48    32    16
 C    -0.70800  -2.69270   0.91590    16     3    15    17
 C    -1.42430  -2.73900  -0.33150    17    50    13    16
 C     1.07650   2.88350  -0.73590    18    21    19    12
 C     2.19870   2.11070  -0.73960    19    18     7    23
 C    -0.66970   3.08760   0.50580    20    21    35    22
 C     0.66280   3.07570   0.53190    21    20    18    26
 C    -1.12100   2.93940  -0.76300    22    20    44    12
 C     2.52820   1.87960   0.62500    23    24    19    26
 C     3.16090   0.72330   0.96760    24    23    31    25
 C     3.54850  -0.19570   0.01250    25    28    24     6
 C     1.42070   2.35360   1.38450    26    21    23    29
 C     2.67390  -1.34670   1.64850    27    28    31     4
 C     3.31530  -1.46820   0.48180    28    27     1    25
 C     0.73160   1.52400   2.33160    29    30    26    36
 C     1.40110   0.29450   2.54990    30    31    33    29
 C     2.59660  -0.02430   1.97200    31    27    30    24
 C    -0.66520  -0.90290   2.58080    32    33    34    15
 C     0.68580  -0.91380   2.58900    33    32    30     4
 C    -1.37820   0.30230   2.53840    34    37    32    36
 C    -1.40900   2.35600   1.37180    35    20    38    36
 C    -0.72070   1.53200   2.32290    36    34    35    29
 C    -2.56720  -0.00600   1.94290    37    48    34    40
 C    -2.51790   1.89370   0.60660    38    40    35    44
 C    -3.54410  -0.18280   0.00040    39    40    49    42
 C    -3.15300   0.73360   0.94870    40    38    37    39
 C    -1.16530   0.86860  -2.49060    41    47    11    43
 C    -3.06910  -0.04540  -1.29950    42    39    45    43
 C    -2.36030   1.10280  -1.70880    43    42    44    41
 C    -2.23470   2.15680  -0.76630    44    22    43    38
 C    -2.55770  -1.30870  -1.58240    45    46    50    42
 C    -1.39110  -1.51240  -2.22660    46    45    47    13
 C    -0.70020  -0.43620  -2.73940    47    46     9    41
 C    -2.62620  -1.32250   1.61910    48    49    37    15
 C    -3.29140  -1.46130   0.46110    49    50    48    39
 C    -2.65920  -2.13040  -0.49380    50    49    45    17
