    50
C50-Cs-185                                                                      
 C     1.18480   2.44550  -1.47500     1     2     8    36
 C    -0.00690   3.02530  -1.16290     2     6     1    31
 C    -1.97650   2.65370  -0.33650     3     4    30     6
 C    -2.79130   1.68820   0.12310     4     3     5    21
 C    -3.17670   0.66870  -0.69260     5     4    12    11
 C    -1.19420   2.44010  -1.47730     6     2     3    10
 C     2.36280   0.43890  -1.82020     7    16     8    39
 C     1.23960   1.22230  -2.15530     8     1     7     9
 C    -0.01200   0.54550  -2.51350     9     8    10    18
 C    -1.27180   1.22370  -2.17240    10     6    11     9
 C    -2.39070   0.42670  -1.86800    11    15    10     5
 C    -3.44940  -0.56770  -0.15810    12    13     5    19
 C    -3.07430  -1.49130  -1.04300    13    15    26    12
 C    -1.18620  -1.60580  -2.15660    14    15    18    45
 C    -2.35510  -0.92550  -1.99390    15    13    11    14
 C     2.33620  -0.91660  -1.92970    16    50     7    17
 C     1.16540  -1.59160  -2.12190    17    16    18    49
 C    -0.00770  -0.92580  -2.48320    18    17    14     9
 C    -2.93650  -0.92910   1.07630    19    12    20    23
 C    -2.31300   0.06500   1.88090    20    22    21    19
 C    -2.29600   1.39720   1.42530    21    20    29     4
 C    -1.14250  -0.31670   2.54410    22    25    20    27
 C    -2.31730  -2.20080   0.84490    23    24    26    19
 C    -1.14700  -2.47900   1.48460    24    25    23    47
 C    -0.65540  -1.57920   2.36500    25    34    24    22
 C    -2.38220  -2.48180  -0.50070    26    13    23    45
 C     0.00160   0.50220   2.67980    27    28    22    35
 C    -0.00200   1.82720   2.24140    28    27    32    29
 C    -1.22430   2.29600   1.66400    29    30    21    28
 C    -1.16830   3.19240   0.61360    30    31     3    29
 C     0.00230   3.56180   0.09580    31    33    30     2
 C     1.21960   2.28630   1.65810    32    33    44    28
 C     1.17560   3.18270   0.60010    33    31    36    32
 C     0.66630  -1.59150   2.36730    34    25    40    35
 C     1.14510  -0.32390   2.54580    35    34    43    27
 C     1.98820   2.66940  -0.34830    36    37    33     1
 C     2.80480   1.70480   0.11600    37    36    39    44
 C     3.47310  -0.57080  -0.16750    38    50    39    42
 C     3.20150   0.67350  -0.68060    39    37    38     7
 C     1.14620  -2.49900   1.48170    40    34    41    47
 C     2.31170  -2.21380   0.83780    41    40    48    42
 C     2.92450  -0.93040   1.05940    42    38    43    41
 C     2.30360   0.06550   1.86850    43    35    44    42
 C     2.29930   1.39800   1.41440    44    43    32    37
 C    -1.20110  -2.68610  -1.21020    45    26    46    14
 C    -0.00180  -3.06400  -0.60380    46    45    49    47
 C    -0.00510  -2.99690   0.82100    47    40    24    46
 C     2.41440  -2.50240  -0.50690    48    50    41    49
 C     1.20990  -2.68660  -1.19370    49    48    46    17
 C     3.10630  -1.52160  -1.03290    50    48    16    38
