    50
C50-C1-151                                                                      
 C     0.30700   1.12930  -2.72310     1    28     2     6
 C     1.21040   1.90260  -2.06830     2     1     3    18
 C     0.71830   2.77210  -1.13790     3     7     2     4
 C    -0.67240   2.73280  -0.82700     4     5    12     3
 C    -1.60150   1.95730  -1.55180     5    15     4     6
 C    -1.04190   1.11120  -2.53230     6     1     5    36
 C     1.41050   2.88630   0.01150     7     3     8    16
 C     0.51020   2.93180   1.02000     8     9     7    12
 C     0.99120   2.21620   2.02850     9     8    20    48
 C    -2.80300   1.52340   0.53970    10    44    11    15
 C    -1.71970   2.03570   1.29460    11    12    10    47
 C    -0.77350   2.80580   0.58290    12     8    11     4
 C    -3.79570  -0.33750  -0.15400    13    14    44    50
 C    -3.30410   0.23220  -1.25300    14    13    35    15
 C    -2.72130   1.45240  -0.88600    15     5    14    10
 C     2.49300   2.09770   0.36950    16    20     7    17
 C     2.99360   1.12230  -0.51670    17    16    19    18
 C     2.31470   1.05240  -1.77710    18    25     2    17
 C     3.36980  -0.13370   0.02920    19    23    17    22
 C     2.20550   1.73340   1.67570    20    21     9    16
 C     2.33590   0.46750   2.12700    21    20    22    40
 C     3.02150  -0.46060   1.38790    22    21    27    19
 C     3.17700  -1.32990  -0.65350    23    26    24    19
 C     2.35860  -1.36810  -1.75700    24    25    23    30
 C     2.00990  -0.20130  -2.36000    25    28    24    18
 C     2.75960  -2.27250   0.17350    26    23    27    29
 C     2.58170  -1.76240   1.38440    27    26    22    43
 C     0.76670  -0.11020  -2.87280    28     1    25    33
 C     1.63000  -2.82020  -0.25500    29    26    37    30
 C     1.31580  -2.31820  -1.49650    30    29    32    24
 C    -1.09170  -2.43330  -0.92740    31    34    32    39
 C    -0.03300  -2.11140  -1.87090    32    30    33    31
 C    -0.27190  -0.98980  -2.70310    33    28    36    32
 C    -2.36390  -1.78730  -1.09900    34    50    35    31
 C    -2.51830  -0.66640  -1.94970    35    36    14    34
 C    -1.44230  -0.23860  -2.63900    36    35    33     6
 C     0.68720  -2.79560   0.73550    37    29    39    43
 C    -1.47060  -2.11800   1.46850    38    49    39    41
 C    -0.67460  -2.70740   0.46150    39    37    38    31
 C     1.06840   0.13500   2.69700    40    42    48    21
 C    -0.85610  -1.22970   2.39080    41    42    38    46
 C     0.52310  -1.15580   2.51420    42    41    43    40
 C     1.30090  -2.07540   1.81070    43    27    42    37
 C    -3.49070   0.39430   0.93360    44    13    45    10
 C    -2.84390  -0.42980   1.78000    45    44    46    49
 C    -1.71280  -0.09690   2.44620    46    45    47    41
 C    -1.15790   1.19360   2.37370    47    46    48    11
 C     0.22310   1.27700   2.62970    48     9    47    40
 C    -2.70010  -1.64260   1.18770    49    50    38    45
 C    -3.22530  -1.56680  -0.03860    50    49    13    34
