    50
C50-C1-216                                                                      
 C    -2.79480  -1.53830   1.25060     1     4    31     2
 C    -2.10800  -0.74870   2.13960     2     3     1     9
 C    -2.27010   0.61020   2.03400     3     2    12    28
 C    -1.92430  -2.45160   0.76760     4     1     6    39
 C     0.38870  -2.74950   0.86250     5     6    18     8
 C    -0.76150  -2.38620   1.46000     6     5     4     9
 C     1.65620  -2.54690  -0.84960     7     8    48    40
 C     0.38730  -2.88720  -0.54900     8     7    38     5
 C    -0.81260  -1.27670   2.31220     9     6     2    10
 C     0.37230  -0.51890   2.53510    10     9    11    17
 C     0.16610   0.91810   2.50750    11    15    12    10
 C    -1.13510   1.40160   2.22140    12    13     3    11
 C    -1.28530   2.44030   1.33360    13    19    27    12
 C     2.42110   1.13060   1.68660    14    15    44    16
 C     1.22370   1.68710   1.98240    15    14    11    26
 C     2.72620  -0.20510   1.75620    16    14    50    17
 C     1.64510  -1.07500   2.08770    17    16    18    10
 C     1.61820  -2.25090   1.26420    18    48     5    17
 C    -2.36640   2.22980   0.56520    19    13    28    20
 C    -1.97670   2.47380  -0.73960    20    21    19    22
 C    -2.35990   1.49070  -1.62760    21    29    20    23
 C    -0.65350   2.92620  -0.67170    22    25    27    20
 C    -1.33670   0.86550  -2.35760    23    24    32    21
 C    -0.05250   1.35000  -2.33710    24    23    35    25
 C     0.31540   2.44260  -1.55270    25    46    24    22
 C     1.04950   2.71230   1.01990    26    27    45    15
 C    -0.23890   2.98600   0.66340    27    13    26    22
 C    -3.09270   1.14080   0.99780    28    19    30     3
 C    -3.22180   0.50100  -1.23690    29    33    21    30
 C    -3.67640   0.28090   0.06370    30    31    29    28
 C    -3.55280  -1.08180   0.21980    31     1    30    34
 C    -1.57160  -0.51350  -2.36690    32    33    23    37
 C    -2.78620  -0.68920  -1.75170    33    34    29    32
 C    -3.02580  -1.69230  -0.89830    34    33    39    31
 C     1.03310   0.49220  -2.43310    35    24    41    36
 C     0.86030  -0.93360  -2.39600    36    40    35    37
 C    -0.49090  -1.43770  -2.24310    37    32    36    38
 C    -0.75140  -2.53290  -1.29500    38     8    39    37
 C    -1.99020  -2.54500  -0.61780    39    34     4    38
 C     1.94010  -1.59060  -1.78820    40     7    43    36
 C     2.14180   1.13470  -1.82860    41    42    46    35
 C     3.16820   0.38880  -1.26850    42    43    41    47
 C     3.06490  -0.96930  -1.28160    43    42    49    40
 C     3.01840   1.72160   0.61350    44    47    14    45
 C     2.08710   2.57620   0.09310    45    44    26    46
 C     1.64920   2.30260  -1.20960    46    25    45    41
 C     3.66600   0.72180  -0.01250    47    44    50    42
 C     2.49930  -2.37720   0.20930    48    49     7    18
 C     3.46280  -1.48850  -0.06670    49    48    50    43
 C     3.67260  -0.43590   0.73630    50    49    47    16
