    50
C50-C1-117                                                                      
 C     0.96160  -2.86960   0.33500     1    11     3     2
 C    -0.39190  -2.97090  -0.02150     2     4     6     1
 C     1.91020  -2.41270  -0.54970     3     1    27    15
 C    -0.82060  -2.52110  -1.26830     4    28     5     2
 C    -2.02570  -1.84560  -1.39340     5     4     8    36
 C    -1.14640  -2.56560   1.08490     6    12     7     2
 C    -2.32860  -1.89400   0.95050     7     6     8    20
 C    -2.88750  -1.64790  -0.30500     8     9     7     5
 C    -3.61710  -0.50800  -0.21920     9     8    45    10
 C    -3.55180   0.48700  -1.16700    10    50     9    35
 C     1.00450  -2.37080   1.59970    11    12     1    13
 C    -0.25400  -2.15930   2.01600    12    11     6    22
 C     1.85310  -1.38680   2.01190    13    11    14    17
 C     2.91670  -0.94880   1.18090    14    13    16    15
 C     2.95240  -1.53740  -0.13170    15    25     3    14
 C     3.20000   0.44480   1.23200    16    19    23    14
 C     0.97670  -0.50260   2.71350    17    18    22    13
 C     1.19710   0.83120   2.57210    18    19    17    49
 C     2.29510   1.25050   1.90230    19    41    18    16
 C    -2.56340  -0.73870   1.74870    20    45     7    21
 C    -1.48720  -0.16070   2.49340    21    22    20    48
 C    -0.34490  -0.97090   2.68250    22    12    17    21
 C     3.51630   1.16280   0.06650    23    24    42    16
 C     3.47030   0.57310  -1.13460    24    23    25    29
 C     3.23380  -0.74620  -1.23360    25    24    26    15
 C     2.25630  -0.95890  -2.14660    26    27    25    30
 C     1.46900  -1.99600  -1.81400    27    26    28     3
 C     0.12350  -1.94900  -2.10490    28    27     4    33
 C     2.47880   1.17810  -1.86640    29    37    30    24
 C     1.70790   0.26030  -2.52850    30    29    26    32
 C    -0.29820   1.59060  -2.09310    31    34    32    38
 C     0.32810   0.41340  -2.67760    32    30    33    31
 C    -0.47020  -0.77320  -2.61450    33    36    28    32
 C    -1.68970   1.54880  -1.87180    34    39    31    35
 C    -2.51010   0.40920  -2.07290    35    36    10    34
 C    -1.81070  -0.75960  -2.26880    36    35    33     5
 C     1.90760   2.19040  -1.14650    37    29    42    38
 C     0.51000   2.40540  -1.17970    38    37    31    44
 C    -2.29340   2.22460  -0.83010    39    50    43    34
 C     0.62870   2.52210   1.24930    40    41    44    49
 C     1.96570   2.31320   1.15010    41    42    19    40
 C     2.64430   2.23570   0.02210    42    41    37    23
 C    -1.50060   2.55550   0.23180    43    39    44    47
 C    -0.14530   2.74440   0.08860    44    43    40    38
 C    -3.42780   0.04100   1.02590    45    46    20     9
 C    -3.28750   1.37500   0.87070    46    50    45    47
 C    -2.10810   1.91360   1.35660    47    46    48    43
 C    -1.23510   1.24780   2.24780    48    49    47    21
 C     0.10530   1.66060   2.24910    49    48    18    40
 C    -3.41930   1.61830  -0.43880    50    39    46    10
