    50
C50-C1-15                                                                       
 C     3.54920  -0.75390   1.44410     1     2    39     4
 C     3.72300   0.57680   1.23060     2     3     1    23
 C     2.74590   1.41560   1.54240     3     2    11     9
 C     2.26300  -1.17770   1.81040     4     1    42     8
 C    -1.81110  -2.01460   1.10950     5    20     6    38
 C    -0.47900  -1.86380   1.45280     6     5    41     7
 C    -0.13600  -0.66640   2.20060     7     8    22     6
 C     1.23360  -0.30820   2.25850     8     9     7     4
 C     1.54600   1.06020   2.11470     9     3    18     8
 C     1.14990   2.54050   0.56260    10    11    12    18
 C     2.46010   2.20560   0.49770    11     3    10    26
 C     0.39940   2.58830  -0.56570    12    10    13    27
 C    -0.96420   2.46380  -0.51400    13    12    47    15
 C    -2.98570   1.65470   0.49410    14    19    15    16
 C    -1.68400   2.12620   0.66020    15    14    13    17
 C    -3.58740   1.43020  -0.74690    16    48    46    14
 C    -0.81540   1.59060   1.67210    17    18    22    15
 C     0.53840   1.88070   1.63510    18    17     9    10
 C    -3.49910   0.66870   1.31400    19    14    21    49
 C    -2.90480  -1.37130   1.64700    20    50     5    21
 C    -2.53160  -0.07950   1.96680    21    20    19    22
 C    -1.21230   0.30700   2.17570    22    21    17     7
 C     4.05480   0.76500  -0.10910    23    24     2    26
 C     4.20140  -0.49360  -0.61620    24    23    25    39
 C     3.23560  -0.78000  -1.54320    25    31    24    29
 C     3.13600   1.71510  -0.60850    26    11    23    28
 C     0.93490   1.92910  -1.67990    27    12    33    28
 C     2.24770   1.40740  -1.67680    28    29    27    26
 C     2.30600   0.07080  -2.10100    29    25    28    35
 C     1.26920  -1.81710  -1.57610    30    31    32    35
 C     2.55820  -1.89430  -1.17990    31    40    30    25
 C     0.19190  -2.26000  -0.80110    32    30    37    41
 C    -0.22320   1.32320  -2.18870    33    47    27    34
 C    -0.16410  -0.07250  -2.41160    34    35    33    36
 C     1.09450  -0.62190  -2.28770    35    34    30    29
 C    -1.33290  -0.80050  -2.04990    36    43    34    37
 C    -1.12290  -1.92400  -1.15420    37    38    32    36
 C    -2.16090  -2.13300  -0.24550    38    45    37     5
 C     3.98940  -1.44770   0.35950    39    40     1    24
 C     2.96830  -2.28490   0.04610    40    31    39    42
 C     0.54870  -2.36840   0.61260    41    42     6    32
 C     1.90480  -2.21680   0.93160    42    40    41     4
 C    -2.57700  -0.14780  -1.88840    43    44    46    36
 C    -3.64950  -0.60760  -1.16690    44    45    43    48
 C    -3.43790  -1.64050  -0.30940    45    44    50    38
 C    -2.61030   1.23850  -1.70220    46    47    16    43
 C    -1.39920   1.84180  -1.68170    47    46    33    13
 C    -4.41000   0.35470  -0.54960    48    49    16    44
 C    -4.52040  -0.07750   0.73850    49    50    48    19
 C    -4.03340  -1.32820   0.88090    50    49    20    45
