    50
C50-C1-200                                                                      
 C     2.52830  -2.05310   0.83690     1    30     2     6
 C     3.19580  -0.87450   0.80900     2     3     1     7
 C     2.73130  -0.10520   1.82000     3     2    15    35
 C     2.11300  -1.90860  -1.45740     4    17     6     5
 C     2.78790  -0.65470  -1.49910     5     7     9     4
 C     1.92440  -2.57740  -0.25790     6     1     4    21
 C     3.31770  -0.12080  -0.31860     7     2     5     8
 C     3.01280   1.20260   0.04040     8    11     7    15
 C     2.03290   0.17290  -2.33950     9    18    10     5
 C     1.79590   1.48800  -2.01850    10     9    11    26
 C     2.33310   2.02980  -0.83470    11    12     8    10
 C     1.41180   2.89700  -0.35510    12    11    43    16
 C     0.44610   1.20350   2.55400    13    34    48    14
 C     1.45480   1.95040   1.83220    14    16    15    13
 C     2.57940   1.19490   1.40970    15     3    14     8
 C     0.93390   2.91050   0.94730    16    50    12    14
 C     1.02740  -1.77040  -2.25610    17    18     4    19
 C     0.97570  -0.54340  -2.79150    18    17     9    28
 C    -0.23310  -2.21550  -1.97850    19    17    23    20
 C    -0.49470  -2.85800  -0.73960    20    22    21    19
 C     0.61410  -2.95380   0.13190    21    20     6    29
 C    -1.75320  -2.59840  -0.18780    22    25    20    31
 C    -1.10150  -1.20980  -2.47650    23    24    28    19
 C    -2.31160  -1.02520  -1.89470    24    23    25    47
 C    -2.71240  -1.85400  -0.86860    25    37    24    22
 C     0.48240   2.01560  -2.18320    26    43    10    27
 C    -0.65780   1.21450  -2.54240    27    28    26    46
 C    -0.32070  -0.11620  -2.88030    28    18    23    27
 C     0.45930  -2.57910   1.49990    29    30    32    21
 C     1.66010  -2.01550   1.86300    30     1    35    29
 C    -1.89500  -2.21600   1.17960    31    36    32    22
 C    -0.75440  -2.05700   1.97320    32    31    29    33
 C    -0.64720  -0.78910   2.65510    33    40    34    32
 C     0.60330  -0.16780   2.83500    34    35    33    13
 C     1.76100  -0.80640   2.50620    35    34    30     3
 C    -2.93060  -1.28830   1.19740    36    37    39    31
 C    -3.43600  -1.14390  -0.03120    37    25    42    36
 C    -3.09900   0.87330   0.71520    38    41    42    39
 C    -2.74040  -0.04030   1.73070    39    36    40    38
 C    -1.60310   0.21600   2.46550    40    39    48    33
 C    -2.36660   2.01660   0.53640    41    38    49    45
 C    -3.45240   0.13670  -0.39510    42    37    38    47
 C     0.35310   2.94880  -1.20690    43    44    26    12
 C    -0.75820   3.09120  -0.50170    44    43    50    45
 C    -1.88080   2.36240  -0.75290    45    44    41    46
 C    -1.91270   1.40980  -1.82610    46    47    45    27
 C    -2.74470   0.29320  -1.58700    47    42    46    24
 C    -0.93600   1.43260   2.37080    48    49    40    13
 C    -1.36860   2.38930   1.46140    49    50    48    41
 C    -0.42730   3.09550   0.81370    50    49    44    16
