    50
C50-C1-149                                                                      
 C    -2.44810  -1.03310  -1.65680     1    36     4     2
 C    -1.32380  -1.92030  -1.64170     2     1     7    34
 C     1.21280  -2.95770  -0.88570     3     8    35    10
 C    -2.28230   0.31880  -2.02700     4     5     9     1
 C    -1.04700   0.74070  -2.40790     5     4     6    50
 C     0.00920  -0.12050  -2.62930     6     5    45     7
 C    -0.08920  -1.51200  -2.29060     7     8     6     2
 C     1.14420  -2.08700  -1.94090     8     3    13     7
 C    -3.09940   1.11700  -1.24280     9    37     4    48
 C     2.33120  -2.67860  -0.12530    10    11    12     3
 C     1.91680  -2.53590   1.13180    11    10    14    22
 C     2.95740  -1.65020  -0.71170    12    10    13    20
 C     2.30040  -1.32740  -1.84940    13    46    12     8
 C     0.61600  -2.89070   1.16420    14    15    11    35
 C    -0.05460  -2.08280   2.00180    15    14    16    17
 C    -1.36850  -1.86810   1.79670    16    15    32    24
 C     0.81620  -1.07460   2.42010    17    15    18    22
 C     0.32230   0.23330   2.61900    18    19    17    31
 C     1.25250   1.23570   2.31860    19    33    18    23
 C     3.28740  -0.48040  -0.04360    20    12    41    21
 C     2.86770  -0.29940   1.32500    21    23    22    20
 C     2.08440  -1.35630   1.83530    22    11    21    17
 C     2.51490   1.00710   1.67520    23    43    21    19
 C    -2.01590  -2.35710   0.62940    24    25    16    34
 C    -3.08680  -1.55300   0.44510    25    36    24    26
 C    -3.02890  -0.53470   1.36460    26    27    32    25
 C    -3.45150   0.58790   0.76030    27    26    37    28
 C    -2.59250   1.65720   0.83260    28    27    30    48
 C    -0.46920   2.58900   1.40990    29    33    30    39
 C    -1.49230   1.70630   1.73170    30    29    28    31
 C    -1.09660   0.47480   2.42150    31    32    18    30
 C    -1.92210  -0.63680   2.12870    32    26    16    31
 C     0.81770   2.45180   1.85490    33    40    29    19
 C    -1.17630  -2.76560  -0.44400    34    35    24     2
 C     0.10930  -3.17970  -0.10500    35     3    34    14
 C    -3.48270  -1.00490  -0.72430    36    37    25     1
 C    -3.83050   0.27640  -0.49690    37     9    36    27
 C     1.03560   3.21500  -0.08330    38    40    47    39
 C    -0.33910   3.11600   0.08480    39    38    49    29
 C     1.71600   2.95270   1.02690    40    33    43    38
 C     3.04660   0.56960  -0.96910    41    42    46    20
 C     2.75260   1.83700  -0.52060    42    43    41    47
 C     2.71220   2.09920   0.82800    43    40    42    23
 C     0.85480   1.88290  -2.02720    44    47    45    50
 C     1.19750   0.61780  -2.48270    45    46    44     6
 C     2.34020   0.00200  -2.04120    46    13    45    41
 C     1.65440   2.52460  -1.10480    47    44    38    42
 C    -2.42920   2.09520  -0.51210    48    49     9    28
 C    -1.21030   2.63730  -0.89050    49    48    39    50
 C    -0.53600   1.96410  -1.94820    50    44     5    49
