    50
C50-Cs-206                                                                      
 C     2.98710   0.96940  -1.38880     1    35     2     3
 C     3.65380  -0.00980  -0.66300     2     9    22     1
 C     2.32900   1.98310  -0.69790     3     1     4     7
 C     1.07330   2.44620  -1.12500     4    14     3     6
 C    -1.06610   1.81560  -2.05820     5    16     6    39
 C     0.33020   1.81050  -2.18600     6    34     5     4
 C     2.34160   1.98930   0.70980     7     8    10     3
 C     2.99680   0.96800   1.39110     8    20     9     7
 C     3.65900  -0.02960   0.68510     9     2    18     8
 C     1.08020   2.45120   1.12280    10    14     7    11
 C     0.33680   1.80890   2.17940    11    19    12    10
 C    -1.05680   1.80750   2.05120    12    15    11    30
 C    -0.98840   2.97000  -0.00340    13    14    15    16
 C     0.36990   2.90610  -0.00120    14    13     4    10
 C    -1.70530   2.49350   1.06420    15    47    12    13
 C    -1.71840   2.51010  -1.07330    16    50     5    13
 C     2.29110  -1.00590   2.07380    17    18    20    24
 C     3.14010  -1.24460   1.07650    18    17    23     9
 C     0.93340   0.64410   2.65390    19    20    11    32
 C     2.20490   0.32410   2.30130    20    17    19     8
 C     2.28030  -0.99440  -2.06750    21    22    35    29
 C     3.11790  -1.22400  -1.06100    22    21    23     2
 C     2.68220  -1.97720   0.00480    23    22    18    27
 C     1.05940  -1.55560   2.19660    24    17    26    32
 C    -0.80740  -2.57840   1.17520    25    40    26    33
 C     0.57930  -2.46450   1.22490    26    25    24    27
 C     1.37680  -2.57000  -0.00820    27    23    28    26
 C     0.58290  -2.46200  -1.24060    28    41    29    27
 C     1.05260  -1.54390  -2.20660    29    21    28    38
 C    -1.84370   0.63540   2.22850    30    31    12    44
 C    -1.18680  -0.59520   2.49430    31    32    33    30
 C     0.18690  -0.55390   2.70180    32    31    19    24
 C    -1.72630  -1.72170   1.86350    33    46    31    25
 C     0.92880   0.64820  -2.66610    34    35     6    38
 C     2.20030   0.33130  -2.30600    35    21    34     1
 C    -1.70260  -1.70700  -1.84120    36    42    37    41
 C    -1.18880  -0.58200  -2.50050    37    38    36    39
 C     0.18230  -0.55040  -2.71690    38    37    34    29
 C    -1.85550   0.64110  -2.23790    39    37    49     5
 C    -1.44260  -2.89300  -0.00110    40    43    41    25
 C    -0.79720  -2.58800  -1.16410    41    40    28    36
 C    -2.84200  -1.63240  -1.05590    42    43    48    36
 C    -2.66260  -2.37570   0.02560    43    46    42    40
 C    -2.97750   0.71060   1.37050    44    47    45    30
 C    -3.41360  -0.43060   0.71470    45    46    44    48
 C    -2.88510  -1.64060   1.10160    46    43    45    33
 C    -2.83740   1.87550   0.66610    47    15    50    44
 C    -3.40500  -0.42050  -0.72630    48    42    49    45
 C    -2.99210   0.72730  -1.38370    49    50    48    39
 C    -2.85820   1.88670  -0.69330    50    16    49    47
