    50
C50-C1-29                                                                       
 C     3.12140   1.03170   1.31340     1     5     3     2
 C     3.74760   0.88090   0.06470     2    22    10     1
 C     2.61190  -0.06710   1.95810     3     8     1     6
 C     0.96280   2.07660   1.63070     4     5    37     7
 C     2.24530   2.06870   1.15660     5    23     1     4
 C     1.26130  -0.08240   2.42970     6     7    16     3
 C     0.37110   1.00010   2.33870     7     6     4    14
 C     2.84390  -1.30330   1.43270     8    11     3     9
 C     3.38390  -1.51240   0.15760     9    10    18     8
 C     3.74290  -0.37360  -0.55050    10     9    17     2
 C     1.75580  -2.06720   1.62350    11    12     8    16
 C     1.54300  -2.80230   0.53440    12    11    50    18
 C    -1.80180   1.74810   1.54720    13    45    36    14
 C    -1.03610   0.78070   2.25660    14    13     7    48
 C    -0.62360  -1.61060   1.92760    15    16    48    49
 C     0.73440  -1.36700   2.21140    16    11     6    15
 C     3.00100  -0.12430  -1.70190    17    21    20    10
 C     2.45420  -2.39560  -0.38110    18    12    19     9
 C     1.69430  -2.07520  -1.48040    19    20    18    33
 C     1.94640  -0.89660  -2.12200    20    19    17    31
 C     2.66090   1.17100  -1.80420    21    17    22    24
 C     3.18330   1.84940  -0.76280    22    23    21     2
 C     2.28630   2.58610  -0.10090    23    22     5    29
 C     1.32930   1.25950  -2.20420    24    21    31    28
 C    -2.78970   0.18200  -1.75990    25    32    38    26
 C    -1.48130   0.59980  -2.14580    26    25    30    27
 C    -0.97900   1.88540  -1.66230    27    28    40    26
 C     0.41560   2.16680  -1.62860    28    24    27    29
 C     0.98160   2.80380  -0.47490    29    23    37    28
 C    -0.47130  -0.41670  -2.35520    30    31    26    34
 C     0.87980  -0.04920  -2.45980    31    20    30    24
 C    -3.01750  -1.11770  -1.36960    32    35    42    25
 C     0.36490  -2.40990  -1.23390    33    19    34    50
 C    -0.72870  -1.72190  -1.77620    34    35    33    30
 C    -1.95420  -1.93250  -1.18300    35    32    34    44
 C    -1.12140   2.51890   0.60350    36    37    40    13
 C     0.19260   2.69990   0.65670    37    36    29     4
 C    -3.67290   0.91940  -0.96840    38    39    41    25
 C    -3.01360   1.86190  -0.28890    39    38    40    45
 C    -1.80350   2.36880  -0.60180    40    39    36    27
 C    -4.30030   0.07550  -0.06240    41    42    46    38
 C    -3.90500  -1.16570  -0.34490    42    41    43    32
 C    -3.14150  -1.72180   0.62680    43    42    44    47
 C    -2.04970  -2.38960   0.16010    44    43    49    35
 C    -3.02300   1.48770   1.02590    45    46    13    39
 C    -3.70300   0.33940   1.14210    46    45    41    47
 C    -2.90190  -0.71730   1.56810    47    46    43    48
 C    -1.60010  -0.56700   2.13190    48    47    15    14
 C    -0.86620  -2.56180   0.83600    49    44    50    15
 C     0.26740  -2.91080   0.09300    50    12    49    33
