    50
C50-Cs-88                                                                       
 C     3.70140  -0.68280  -0.66590     1     2    26     3
 C     3.69300   0.67730  -0.66080     2     1    10     4
 C     2.80530  -1.37770  -1.47160     3    37     6     1
 C     2.79820   1.37640  -1.46120     4    12     2     5
 C     1.88650   0.69000  -2.25430     5     4     6    20
 C     1.88500  -0.70510  -2.26680     6     3     5     7
 C     0.55270  -1.11170  -2.38760     7     6    46     9
 C    -1.33730  -2.11890  -1.33310     8     9    50    40
 C     0.02030  -2.16840  -1.60810     9     8    36     7
 C     3.56850   1.10640   0.64060    10    11     2    15
 C     2.66880   2.11030   0.62380    11    10    12    16
 C     2.22500   2.31960  -0.63720    12    11    22     4
 C     2.21050   0.00430   2.22050    13    27    14    15
 C     1.34040   1.10980   2.28150    14    16    34    13
 C     3.38510  -0.01130   1.43730    15    26    10    13
 C     1.57240   2.18110   1.43320    16    11    14    17
 C     0.47460   2.64110   0.70740    17    16    18    22
 C    -0.85270   2.37550   1.04290    18    17    19    33
 C    -1.79630   2.36450  -0.00300    19    35    18    23
 C     0.55130   1.10520  -2.37210    20     5    46    21
 C     0.01540   2.17040  -1.60450    21    23    22    20
 C     0.90190   2.65610  -0.64370    22    12    21    17
 C    -1.33210   2.11170  -1.31670    23    21    48    19
 C     2.67570  -2.11530   0.61910    24    26    37    25
 C     1.57870  -2.17150   1.43460    25    24    27    39
 C     3.58330  -1.11790   0.63640    26    24     1    15
 C     1.33120  -1.09170   2.26730    27    25    28    13
 C     0.02380  -0.68650   2.48840    28    27    34    29
 C    -1.11700  -1.38050   2.03710    29    30    28    38
 C    -2.34420  -0.69090   1.98300    30    41    29    32
 C    -3.40210   1.07600   1.19590    31    35    43    32
 C    -2.35390   0.72950   2.02720    32    31    33    30
 C    -1.12310   1.40750   2.08690    33    34    32    18
 C     0.02380   0.72060   2.51580    34    14    33    28
 C    -3.00730   1.77710   0.10640    35    19    31    44
 C     0.90300  -2.64200  -0.63340    36    37     9    39
 C     2.22700  -2.31200  -0.64090    37    24    36     3
 C    -0.85600  -2.37810   1.01850    38    39    40    29
 C     0.47500  -2.64310   0.71420    39    38    25    36
 C    -1.80460  -2.37760  -0.02010    40    42    38     8
 C    -3.38510  -1.05510   1.14760    41    42    43    30
 C    -3.01960  -1.79320   0.07900    42    41    40    49
 C    -4.08680   0.01410   0.69160    43    41    31    45
 C    -3.35470   1.11120  -1.02890    44    35    45    48
 C    -4.05770  -0.01300  -0.68730    45    49    44    43
 C    -0.28700  -0.00410  -2.60440    46    47     7    20
 C    -1.66790  -0.01440  -2.36600    47    46    48    50
 C    -2.23910   1.17080  -1.83910    48    44    23    47
 C    -3.38920  -1.14260  -1.06280    49    42    45    50
 C    -2.26640  -1.19860  -1.86280    50    49     8    47
