    50
C50-C1-190                                                                      
 C     1.31060   0.24510  -2.47620     1     2     4    29
 C     2.49590   0.64140  -1.92220     2     5     1     3
 C     2.49160   1.80300  -1.19660     3    28    12     2
 C     0.87390  -1.07910  -2.34800     4    37     1     7
 C     3.24490  -0.23830  -1.20680     5     2    11     6
 C     2.78440  -1.52070  -0.95450     6    14     5     7
 C     1.56280  -2.01240  -1.50010     7     6     4     9
 C     0.99370  -2.81580   0.70000     8    13    49     9
 C     0.67720  -2.83720  -0.69830     9    10     8     7
 C    -0.70380  -2.90600  -0.95270    10    50     9    36
 C     3.73160   0.35410  -0.05890    11    18    12     5
 C     3.14460   1.57190  -0.02580    12    11     3    17
 C     2.11780  -2.19430   1.11310    13    14     8    42
 C     3.09620  -1.68170   0.37910    14    13    18     6
 C     0.08270   2.97230   0.88810    15    16    21    24
 C     1.29630   2.77240   0.33600    16    15    17    28
 C     2.26150   1.98170   0.95840    17    12    16    20
 C     3.52020  -0.50190   0.94480    18    11    14    19
 C     2.56790  -0.16670   1.92190    19    42    18    20
 C     1.85910   1.05740   1.98740    20    19    17    23
 C    -1.01520   3.21520   0.08970    21    22    15    26
 C    -2.08230   2.76880   0.72720    22    21    34    25
 C     0.45330   1.05990   2.38170    23    24    20    44
 C    -0.34830   2.13430   1.94000    24    25    23    15
 C    -1.70530   2.04930   1.78150    25    22    47    24
 C    -1.02070   2.69700  -1.19520    26    21    27    30
 C     0.18930   2.32600  -1.77860    27    26    28    29
 C     1.37990   2.57140  -1.06370    28     3    27    16
 C     0.17900   1.07970  -2.45990    29    33     1    27
 C    -2.20010   1.90050  -1.25210    30    34    32    26
 C    -2.94890  -0.38300  -1.32590    31    35    32    41
 C    -2.18340   0.65750  -1.89830    32    30    31    33
 C    -0.95590   0.26740  -2.49180    33    29    37    32
 C    -2.87450   2.02520  -0.03370    34    22    39    30
 C    -2.53100  -1.69780  -1.43560    35    38    36    31
 C    -1.28550  -2.02700  -1.89430    36    37    35    10
 C    -0.50610  -1.06940  -2.46610    37    36     4    33
 C    -2.76150  -2.36870  -0.30420    38    50    35    40
 C    -3.23670   0.89700   0.66150    39    41    34    47
 C    -3.15910  -1.46230   0.59600    40    38    41    45
 C    -3.45780  -0.27190   0.00610    41    39    40    31
 C     1.79070  -1.28010   2.05480    42    43    13    19
 C     0.46970  -1.36050   2.31970    43    42    49    44
 C    -0.29920  -0.20140   2.55660    44    43    46    23
 C    -2.19500  -1.49650   1.61740    45    40    48    46
 C    -1.71520  -0.29830   2.21700    46    47    45    44
 C    -2.38000   0.86960   1.81000    47    25    46    39
 C    -1.32030  -2.55190   1.29040    48    49    50    45
 C    -0.02270  -2.46730   1.61300    49    48    43     8
 C    -1.66900  -3.02510   0.05210    50    38    48    10
