    50
C50-C1-59                                                                       
 C     2.65720  -2.19180   0.60000     1     2    37    10
 C     3.72820  -1.51620   0.16520     2     1     4    21
 C     4.43680   0.53780  -0.19710     3     5     4    20
 C     4.13540  -0.37630   0.78840     4     2     3     6
 C     3.83190   1.70550   0.04120     5     3     9     7
 C     3.13340   0.21780   1.59040     6     7     4    11
 C     3.04800   1.51160   1.14150     7    14     5     6
 C     1.75170   2.51030  -0.29770     8     9    17    14
 C     2.88890   2.03310  -0.86980     9     5     8    19
 C     1.75830  -1.71620   1.52410    10     1    47    11
 C     1.90760  -0.40260   2.00580    11    10     6    12
 C     0.65250   0.31460   2.18010    12    13    11    33
 C     0.67570   1.65840   1.67620    13    15    14    12
 C     1.83280   2.09420   1.05410    14     7    13     8
 C    -0.51300   2.19420   1.25220    15    13    34    16
 C    -0.55260   2.72410  -0.06040    16    22    17    15
 C     0.51670   2.43690  -0.87950    17     8    16    25
 C     1.40280   0.48280  -2.03440    18    19    25    29
 C     2.71740   0.91750  -1.66850    19     9    20    18
 C     3.75350   0.06250  -1.30790    20    21     3    19
 C     3.41370  -1.21350  -1.13970    21    20    30     2
 C    -1.83170   2.54220  -0.37870    22    16    35    23
 C    -2.11970   1.66900  -1.39030    23    31    22    24
 C    -1.07190   0.90330  -1.95410    24    23    25    27
 C     0.27830   1.34950  -1.82250    25    24    18    17
 C    -2.66120  -0.94310  -1.61610    26    32    38    27
 C    -1.35550  -0.51120  -2.00710    27    28    26    24
 C    -0.23860  -1.38230  -1.82170    28    27    29    40
 C     1.12330  -0.94180  -1.98380    29    30    28    18
 C     2.18620  -1.72750  -1.45540    30    37    21    29
 C    -3.33470   1.17170  -1.03060    31    32    23    46
 C    -3.68090  -0.09220  -1.22120    32    31    44    26
 C    -0.67750  -0.28810   2.16750    33    48    50    12
 C    -1.79380   1.75610   1.52700    34    15    35    50
 C    -2.71100   2.26750   0.62140    35    46    22    34
 C     0.56880  -2.72620  -0.07840    36    37    40    47
 C     1.83640  -2.54980  -0.42100    37    36     1    30
 C    -2.91360  -2.08000  -0.86190    38    39    43    26
 C    -1.75610  -2.53930  -0.31650    39    38    40    42
 C    -0.51240  -2.48120  -0.89400    40    39    36    28
 C    -3.05310  -1.46810   1.08790    41    42    43    49
 C    -1.83490  -2.05710   1.00810    42    41    48    39
 C    -3.88410  -1.71560   0.02820    43    44    38    41
 C    -4.47720  -0.54140  -0.19250    44    43    32    45
 C    -4.19820   0.39620   0.79500    45    46    44    49
 C    -3.78330   1.56380   0.21500    46    35    45    31
 C     0.49560  -2.17500   1.23020    47    48    10    36
 C    -0.68810  -1.62680   1.64550    48    47    42    33
 C    -3.15750  -0.18420   1.56880    49    41    45    50
 C    -1.93310   0.42960   1.99070    50    34    49    33
