    50
C50-C1-71                                                                       
 C     2.19660  -1.99350   1.01870     1     2     4    24
 C     3.29340  -1.18190   0.82830     2    14     1     7
 C    -0.09750  -2.24030   1.61360     3     4     8    37
 C     1.12740  -1.65880   1.83800     4     3     1     5
 C     1.11000  -0.34000   2.30510     5     6    10     4
 C     2.11600   0.54560   1.92630     6     7    19     5
 C     3.22360   0.14760   1.22090     7     6     2    16
 C    -1.32100  -1.63050   1.95250     8    39     3     9
 C    -1.36070  -0.25570   2.26860     9    10     8    12
 C    -0.09800   0.34320   2.45450    10    47     5     9
 C    -2.10190   1.89230   1.36600    11    50    46    12
 C    -2.40920   0.54200   1.66020    12    11    13     9
 C    -3.29900  -0.13090   0.76140    13    38    48    12
 C     3.82420  -1.30060  -0.40500    14    15     2    23
 C     3.97960  -0.01370  -0.76550    15    14    18    16
 C     3.71310   0.92780   0.17780    16    15     7    21
 C     2.28250   1.33010  -1.42780    17    18    31    21
 C     2.93620   0.15730  -1.61570    18    17    15    29
 C     1.48870   1.76390   1.69410    19     6    47    20
 C     1.85130   2.54380   0.54850    20    22    21    19
 C     2.82210   1.91540  -0.23830    21    16    20    17
 C     0.71390   3.13260  -0.00550    22    44    20    30
 C     2.82440  -1.92930  -1.07990    23    14    24    29
 C     1.91780  -2.56080  -0.25690    24    23    25     1
 C     0.59400  -2.81850  -0.58040    25    24    37    26
 C     0.02000  -2.03270  -1.68470    26    27    33    25
 C    -1.38790  -1.94200  -1.72850    27    28    26    35
 C    -2.25750  -2.65350  -0.91360    28    36    40    27
 C     2.20190  -0.97980  -1.86970    29    18    23    33
 C     0.29920   2.55620  -1.24120    30    42    31    22
 C     0.97120   1.50040  -1.83330    31    17    30    32
 C     0.18070   0.35360  -2.27950    32    34    33    31
 C     0.83190  -0.93790  -2.14580    33    29    26    32
 C    -1.25510   0.43120  -2.18060    34    35    43    32
 C    -2.02930  -0.71490  -2.00300    35    34    41    27
 C    -1.68210  -2.97160   0.26360    36    28    37    39
 C    -0.34660  -3.00930   0.44910    37    36    25     3
 C    -3.27480  -1.49870   0.61250    38    39    40    13
 C    -2.28570  -2.19150   1.19320    39    38     8    36
 C    -3.33230  -1.84840  -0.69510    40    41    38    28
 C    -3.27810  -0.69230  -1.35260    41    40    48    35
 C    -1.04770   2.62200  -1.25470    42    45    30    43
 C    -1.84440   1.60320  -1.65760    43    42    34    49
 C    -0.50600   3.34120   0.63500    44    45    46    22
 C    -1.55500   3.24630  -0.18780    45    50    42    44
 C    -0.83120   2.45000   1.62800    46    47    44    11
 C     0.15860   1.66470   2.12780    47    46    10    19
 C    -3.51460   0.40430  -0.54240    48    49    41    13
 C    -2.97210   1.61710  -0.78970    49    48    50    43
 C    -2.59310   2.49780   0.19520    50    45    49    11
