    50
C50-C1-130                                                                      
 C    -3.43900   0.17820   1.02810     1     2    26     6
 C    -3.03910  -1.10680   1.25680     2     1     9     3
 C    -1.86270  -1.31970   1.94950     3     2     4    10
 C    -1.13390  -0.24040   2.46930     4    15     3     5
 C    -1.48940   1.11350   2.17240     5     6     4    18
 C    -2.70450   1.27720   1.45330     6    35     1     5
 C    -2.21790  -2.49860  -0.36940     7     9    21     8
 C    -1.07430  -2.82970   0.28630     8     7    10    23
 C    -3.25360  -1.75130   0.05720     9     7    25     2
 C    -0.89700  -2.25110   1.53390    10    11     8     3
 C     0.36660  -1.87770   1.93000    11    10    15    12
 C     1.57100  -2.13890   1.21030    12    13    11    22
 C     2.67960  -1.29870   1.47090    13    16    44    12
 C     1.21940   0.24600   2.55180    14    16    15    19
 C     0.18940  -0.63400   2.57800    15    14     4    11
 C     2.44430  -0.11110   2.13070    16    14    46    13
 C    -0.48150   2.76610   0.71310    17    34    48    18
 C    -0.34290   1.96790   1.87680    18    19    17     5
 C     0.97470   1.55230   2.11750    19    14    18    50
 C    -0.49560  -2.06860  -1.69720    20    21    30    23
 C    -1.82630  -1.93970  -1.53750    21    20     7    28
 C     1.35620  -2.53160  -0.17140    22    23    24    12
 C     0.03170  -2.74220  -0.55720    23     8    22    20
 C     2.23260  -1.96560  -1.11720    24    45    22    29
 C    -3.61190  -0.82500  -0.89620    25    26     9    28
 C    -3.88990   0.34540  -0.27040    26    27    25     1
 C    -3.34810   1.51010  -0.65380    27    26    35    33
 C    -2.58400  -0.84730  -1.85120    28    21    25    32
 C     1.63240  -1.16420  -2.13810    29    38    30    24
 C     0.25950  -1.08960  -2.33160    30    29    20    31
 C    -0.40720   0.20310  -2.50660    31    30    40    32
 C    -1.84910   0.30520  -2.23640    32    28    33    31
 C    -2.33450   1.49540  -1.63200    33    37    27    32
 C    -1.66900   2.76540   0.05640    34    35    37    17
 C    -2.79580   2.17530   0.41450    35    34    27     6
 C    -0.07130   2.31740  -1.42820    36    37    40    48
 C    -1.38820   2.37490  -1.20840    37    36    34    33
 C     2.44700  -0.07560  -2.24300    38    43    39    29
 C     1.86490   1.13760  -2.04100    39    38    40    42
 C     0.49750   1.32120  -2.21470    40    39    36    31
 C     3.69090   0.84730  -0.70470    41    43    47    42
 C     2.62570   1.71990  -0.98240    42    41    49    39
 C     3.53040  -0.23590  -1.49320    43    38    45    41
 C     3.63300  -0.98600   0.51990    44    45    13    47
 C     3.42570  -1.35480  -0.76140    45    43    44    24
 C     3.08850   0.91280   1.53600    46    47    16    50
 C     3.87020   0.39810   0.56990    47    46    41    44
 C     0.57310   2.72120  -0.23060    48    49    17    36
 C     1.87650   2.34910   0.04160    49    48    50    42
 C     2.12370   1.88620   1.35350    50    46    49    19
