    50
C50-C1-161                                                                      
 C     2.54610   2.25870   0.73720     1     8    30     5
 C     1.63670   0.13820   2.26290     2    38     4    29
 C    -0.63000   1.08060   2.23140     3     7     4    36
 C     0.79130   1.26460   2.17580     4     2     5     3
 C     1.31940   2.32870   1.38870     5     1    10     4
 C    -2.63010   1.75210   1.03060     6    37     7    48
 C    -1.40610   2.02970   1.50620     7     6     9     3
 C     2.36290   2.77510  -0.49240     8    11    12     1
 C    -0.83280   2.86010   0.55490     9    10     7    20
 C     0.48650   3.04530   0.52170    10     9    11     5
 C     1.12110   3.18900  -0.68510    11     8    10    22
 C     2.63750   1.74550  -1.30010    12     8    13    15
 C     3.32400   0.76010  -0.64400    13    12    14    30
 C     3.14610  -0.54680  -1.01730    14    26    13    17
 C     1.48220   1.45530  -2.02240    15    12    16    22
 C     1.12280   0.13490  -2.32160    16    15    17    24
 C     2.04460  -0.86230  -1.86170    17    19    14    16
 C     0.30190  -2.46000  -1.62380    18    19    34    25
 C     1.61700  -2.13870  -1.50460    19    18    27    17
 C    -1.61490   2.70820  -0.61590    20    48     9    21
 C    -0.84890   2.12240  -1.68280    21    22    20    23
 C     0.51410   2.41570  -1.67640    22    21    11    15
 C    -1.30170   0.81880  -2.14160    23    50    21    24
 C    -0.28120  -0.18950  -2.41260    24    25    16    23
 C    -0.64120  -1.53530  -2.10040    25    46    18    24
 C     3.20670  -1.57270  -0.11180    26    27    14    28
 C     2.32500  -2.55230  -0.39310    27    26    19    32
 C     2.99960  -1.22170   1.19780    28    33    29    26
 C     2.89290   0.07550   1.58940    29    28    30     2
 C     3.24740   1.09190   0.73820    30     1    29    13
 C     0.25670  -3.15900   0.59940    31    32    34    39
 C     1.58500  -2.88980   0.73270    32    31    33    27
 C     1.97080  -1.96050   1.65410    33    28    32    38
 C    -0.33990  -3.19330  -0.64060    34    47    31    18
 C    -2.51420  -0.42970   1.71340    35    37    44    36
 C    -1.21120  -0.26810   2.29220    36    40    35     3
 C    -3.25830   0.60120   1.19600    37     6    41    35
 C     1.06730  -1.15190   2.30690    38    33    40     2
 C    -0.70330  -2.49090   1.40590    39    42    31    40
 C    -0.31520  -1.38380   2.23670    40    38    36    39
 C    -3.93350   0.27180   0.06740    41    43    37    49
 C    -1.91200  -2.46040   0.69910    42    44    47    39
 C    -3.61140  -0.99480  -0.17600    43    41    44    45
 C    -2.86460  -1.51240   0.88910    44    42    43    35
 C    -2.84230  -0.95160  -1.35230    45    46    43    50
 C    -1.87400  -1.87470  -1.54340    46    45    47    25
 C    -1.61110  -2.82940  -0.59460    47    34    46    42
 C    -2.79800   2.16930  -0.25700    48    49    20     6
 C    -3.42820   1.14400  -0.86510    49    48    41    50
 C    -2.60410   0.39540  -1.68730    50    49    45    23
