    50
C50-C1-187                                                                      
 C    -0.94680  -2.83660   1.12590     1    26     6     2
 C    -0.16990  -3.25030   0.06620     2     3     1     7
 C    -0.53250  -2.84710  -1.18310     3     2    11     4
 C    -1.76390  -2.15430  -1.34950     4    48     3     5
 C    -2.60760  -1.76920  -0.26610     5     6    50     4
 C    -2.08290  -2.08690   1.01340     6     1     5    40
 C     1.11300  -2.98670   0.49540     7    25     8     2
 C     2.08480  -2.35680  -0.24020     8     7    12    10
 C     2.29760  -0.70430  -1.93670     9    13    10    16
 C     1.76920  -1.96460  -1.57220    10    11     9     8
 C     0.44720  -2.23010  -1.99510    11    17    10     3
 C     2.76980  -1.49940   0.66120    12    14     8    24
 C     3.13350  -0.00980  -1.10280    13    20     9    14
 C     3.36510  -0.35760   0.20820    14    12    18    13
 C     0.19910   0.00840  -2.85770    15    16    17    30
 C     1.48020   0.30520  -2.51670    16    15    19     9
 C    -0.24640  -1.26320  -2.66100    17    48    15    11
 C     3.24810   0.80980   0.91460    18    14    21    22
 C     1.78290   1.53700  -1.93410    19    20    16    32
 C     2.91210   1.33180  -1.16680    20    21    13    19
 C     3.07340   1.87250   0.05040    21    34    20    18
 C     2.30760   0.88210   1.93610    22    27    18    23
 C     1.59700  -0.22290   2.42420    23    22    24    28
 C     2.00030  -1.48100   1.85780    24    25    12    23
 C     1.09840  -2.47160   1.74820    25    26    24     7
 C    -0.16570  -2.34380   2.11400    26    25     1    29
 C     1.63180   2.03880   1.63960    27    36    34    22
 C     0.16070  -0.03860   2.73120    28    29    37    23
 C    -0.69400  -1.18230   2.57020    29    26    40    28
 C    -0.87450   0.86620  -2.60070    30    15    45    31
 C    -0.64320   2.08040  -1.88170    31    35    30    32
 C     0.71260   2.40710  -1.51290    32    33    19    31
 C     0.94170   2.96820  -0.20420    33    34    44    32
 C     2.07060   2.62400   0.49270    34    21    27    33
 C    -1.71180   2.41700  -1.00830    35    47    43    31
 C     0.30630   2.21510   1.81340    36    27    37    44
 C    -0.49280   1.22640   2.43850    37    38    36    28
 C    -1.85420   1.27310   2.05900    38    41    39    37
 C    -2.60150   0.09800   1.83760    39    40    49    38
 C    -1.98690  -1.09300   2.02840    40    39    29     6
 C    -2.31200   2.18340   1.11210    41    42    43    38
 C    -3.22260   1.57480   0.36000    42    47    41    49
 C    -1.42050   2.83810   0.30950    43    44    41    35
 C    -0.13610   2.96620   0.68680    44    43    33    36
 C    -2.01080   0.04120  -2.35470    45    46    48    30
 C    -2.95960   0.38510  -1.44780    46    45    47    50
 C    -2.87440   1.64280  -0.91780    47    42    46    35
 C    -1.53630  -1.23000  -2.33650    48    17    45     4
 C    -3.39700   0.30680   0.73230    49    42    39    50
 C    -3.26320  -0.51530  -0.37460    50    49     5    46
