    50
C50-C1-189                                                                      
 C    -2.96080  -1.51300   0.91120     1    32     2     6
 C    -3.30280  -0.24470   0.51870     2     3     1    18
 C    -2.84120   0.80470   1.25750     3     9     2     8
 C     0.22080  -2.73440   1.22680     4     5    12    35
 C    -1.12500  -2.72130   1.10740     5     4    33     6
 C    -1.87760  -1.71990   1.75400     6     1     5     7
 C    -1.22600  -0.65440   2.42790     7     6     8    13
 C    -1.80470   0.62650   2.21890     8    15     7     3
 C    -2.59010   1.98820   0.63320     9    10     3    16
 C    -1.57700   2.61820   1.26800    10    11     9    15
 C    -0.81790   3.22770   0.34270    11    10    20    44
 C     0.88330  -1.84420   2.08050    12    49     4    13
 C     0.20350  -0.71820   2.60900    13    12    47     7
 C     0.34660   1.70870   2.26870    14    15    47    43
 C    -1.02920   1.78620   2.19530    15    10    14     8
 C    -2.43840   2.09340  -0.74700    16    20     9    17
 C    -2.58000   0.92740  -1.50910    17    16    18    19
 C    -3.17430  -0.20020  -0.90340    18    25    17     2
 C    -1.45630   0.62210  -2.33990    19    22    23    17
 C    -1.31110   2.89270  -0.87420    20    11    21    16
 C    -0.23760   2.61850  -1.66560    21    20    22    45
 C    -0.32340   1.45110  -2.41860    22    30    21    19
 C    -0.98390  -0.69670  -2.49090    23    24    26    19
 C    -1.65430  -1.74570  -1.91870    24    23    25    37
 C    -2.81930  -1.49410  -1.22140    25    32    18    24
 C     0.40420  -0.68440  -2.57050    26    23    30    27
 C     1.20470  -1.71870  -1.98020    27    28    26    36
 C     2.47910  -1.26410  -1.55150    28    38    31    27
 C     2.01200   1.04430  -2.04670    29    31    30    46
 C     0.80370   0.66360  -2.59040    30    29    22    26
 C     2.83620   0.07110  -1.59500    31    29    42    28
 C    -2.81790  -2.29820  -0.16430    32    33    25     1
 C    -1.69660  -3.00300  -0.12050    33    32     5    37
 C     2.24090  -2.40200   0.43480    34    38    49    35
 C     1.04570  -2.93610   0.08770    35    34     4    36
 C     0.47950  -2.70890  -1.20610    36    37    35    27
 C    -0.91890  -2.74810  -1.24690    37    33    36    24
 C     3.03530  -1.67920  -0.36190    38    34    39    28
 C     3.56770  -0.61240   0.32410    39    42    38    48
 C     2.32390   1.72260   1.17950    40    43    50    41
 C     2.90620   1.67400  -0.11030    41    42    46    40
 C     3.48300   0.47940  -0.46260    42    39    31    41
 C     1.16330   2.45270   1.38660    43    40    44    14
 C     0.54440   3.16520   0.34840    44    11    45    43
 C     0.95550   2.88410  -0.96020    45    46    44    21
 C     2.09190   2.13150  -1.16390    46    45    29    41
 C     0.97830   0.49490   2.52340    47    14    50    13
 C     2.91540  -0.61070   1.54810    48    49    50    39
 C     2.16120  -1.73950   1.61250    49    34    48    12
 C     2.27540   0.54570   1.95890    50    48    40    47
