    50
C50-C2-138                                                                      
 C     3.34230  -1.64900   0.34130     1     2    25     4
 C     3.96420  -0.49000   0.15480     2     1     3    21
 C     3.71200   0.53060   1.01520     3    11     2     9
 C     2.36820  -1.84960   1.33130     4    40     1     8
 C    -1.85770  -1.66460   1.61470     5    14     6    42
 C    -0.48040  -1.78250   1.81010     6     5    39     7
 C     0.34690  -0.65590   2.21510     7     6    16     8
 C     1.80500  -0.72220   2.00830     8     9     4     7
 C     2.55370   0.46390   1.81600     9    18     3     8
 C     2.52960   2.33390   0.65170    10    11    23    18
 C     3.57920   1.63460   0.24540    11    10     3    20
 C    -1.43700   2.60490   0.69960    12    13    19    45
 C    -0.13720   2.63970   0.94520    13    12    17    22
 C    -2.56630  -0.47060   1.75830    14     5    15    48
 C    -1.80180   0.70530   1.95770    15    14    19    16
 C    -0.35510   0.63720   2.20600    16    17    15     7
 C     0.48700   1.75580   1.83130    17    18    13    16
 C     1.85570   1.65650   1.66780    18    17     9    10
 C    -2.38020   1.82160   1.27000    19    12    50    15
 C     3.38030   1.24010  -1.04280    20    21    11    29
 C     3.63110  -0.06100  -1.12910    21    20    26     2
 C     0.47010   2.85280  -0.30610    22    23    30    13
 C     1.74900   2.57440  -0.45080    23    22    10    29
 C     1.66830  -2.64970  -0.56620    24    25    27    40
 C     2.75090  -1.98680  -0.84100    25    24     1    26
 C     2.71050  -0.91550  -1.68910    26    25    21    33
 C     0.49310  -2.49780  -1.19650    27    24    35    28
 C     0.26480  -1.36620  -2.04960    28    37    27    33
 C     2.16110   1.72070  -1.47560    29    20    23    32
 C    -0.49270   2.54790  -1.23940    30    45    22    31
 C    -0.23550   1.39320  -2.05460    31    30    32    38
 C     1.13150   0.93680  -2.11970    32    31    29    33
 C     1.41910  -0.48540  -2.18750    33    26    32    28
 C    -1.73900  -2.59090  -0.42130    34    35    42    36
 C    -0.46220  -2.86170  -0.26800    35    34    27    39
 C    -2.10640  -1.69490  -1.42940    36    44    34    37
 C    -1.09450  -0.91300  -2.08780    37    28    36    38
 C    -1.38610   0.50660  -2.14760    38    47    37    31
 C     0.15580  -2.73050   0.98630    39    40    35     6
 C     1.45830  -2.68940   0.77550    40    39     4    24
 C    -3.60780  -1.66800   0.26160    41    42    44    48
 C    -2.56970  -2.38630   0.65060    42    41    34     5
 C    -3.56590   0.07270  -1.03180    43    44    47    49
 C    -3.31190  -1.21980  -0.98250    44    43    41    36
 C    -1.68670   2.70210  -0.62610    45    46    30    12
 C    -2.79720   2.04800  -0.81940    46    45    47    50
 C    -2.65980   0.93090  -1.60090    47    46    43    38
 C    -3.77010  -0.53820   1.00190    48    41    49    14
 C    -4.04680   0.53080   0.19480    49    50    48    43
 C    -3.44210   1.70100   0.35640    50    49    46    19
