    50
C50-C1-124                                                                      
 C    -2.72860  -0.17700  -2.09310     1     2    33     6
 C    -3.54060  -0.91220  -1.34570     2     1     4    28
 C    -0.31740  -0.18750  -2.58400     3     6    12    37
 C    -2.83010  -1.99070  -0.97680     4     2     5    10
 C    -2.85000  -1.97450   0.36850     5     4     8    30
 C    -1.52940  -0.83350  -2.35950     6     3     1    10
 C     0.64610  -2.36260   1.19470     7    16     9    17
 C    -1.70740  -2.17740   1.07500     8     5     9    19
 C    -0.50890  -2.59320   0.46750     9     7     8    14
 C    -1.58850  -2.02060  -1.59820    10     4    14     6
 C     2.12060  -0.06710  -2.24460    11    26    40    12
 C     0.92590  -0.84620  -2.34720    12     3    11    13
 C     0.88750  -2.04890  -1.50770    13    15    14    12
 C    -0.39670  -2.45130  -0.99410    14    10    13     9
 C     2.03590  -2.21860  -0.70830    15    16    27    13
 C     1.86260  -2.34650   0.63770    16     7    24    15
 C     0.72850  -1.42940   2.25290    17    18     7    25
 C    -0.43540  -0.75600   2.59120    18    17    22    19
 C    -1.68330  -1.19930   2.09710    19    18     8    20
 C    -2.81060  -0.37710   1.83390    20    30    21    19
 C    -2.52440   0.97800   1.80610    21    23    20    31
 C    -0.26460   0.62430   2.70360    22    23    18    49
 C    -1.30700   1.38790   2.26010    23    36    21    22
 C     2.77090  -1.60110   1.30970    24    45    16    25
 C     2.02260  -0.85780   2.18240    25    24    17    48
 C     3.28180  -0.43070  -1.60630    26    27    50    11
 C     3.19760  -1.48970  -0.78640    27    26    15    45
 C    -3.96590  -0.17430  -0.27510    28     2    30    29
 C    -3.42560   1.11000  -0.41870    29    31    28    33
 C    -3.56340  -0.89650   0.81950    30    20     5    28
 C    -2.78900   1.75450   0.64570    31    29    32    21
 C    -1.65050   2.56150   0.48310    32    36    35    31
 C    -2.66320   1.10310  -1.61260    33     1    34    29
 C    -1.47840   1.78610  -1.72430    34    33    35    37
 C    -0.98480   2.61590  -0.72750    35    32    34    44
 C    -0.80160   2.37600   1.52770    36    23    32    41
 C    -0.35020   1.21510  -2.32220    37    38    34     3
 C     0.78090   1.85700  -1.87630    38    40    37    44
 C     3.00220   1.61500  -1.03280    39    50    40    42
 C     2.01380   1.30700  -1.94830    40    38    39    11
 C     0.56370   2.32310   1.52200    41    36    43    49
 C     2.53630   2.01190   0.21280    42    39    43    47
 C     1.27060   2.59150   0.34870    43    41    42    44
 C     0.41000   2.65100  -0.78830    44    35    38    43
 C     3.68340  -1.11080   0.45590    45    24    46    27
 C     3.94320   0.22580   0.38750    46    50    45    47
 C     3.06180   1.04720   1.13340    47    46    48    42
 C     2.14690   0.55850   2.12100    48    49    25    47
 C     0.95530   1.24530   2.34850    49    48    41    22
 C     3.84480   0.58770  -0.90450    50    39    46    26
