    50
C50-C1-53                                                                       
 C     2.08790   0.90650   2.10620     1     2     3    41
 C     3.24650   0.98020   1.37800     2     9    29     1
 C     1.52210  -0.32720   2.35130     3     1     4     7
 C     0.15020  -0.48680   2.49500     4     3    17     6
 C    -2.11080   0.26580   2.15470     5    42     6    15
 C    -0.77160   0.58220   2.40740     6     5     4    40
 C     2.06260  -1.45650   1.72370     7    10     3     8
 C     3.15680  -1.30030   0.86030     8     9     7    11
 C     3.83850  -0.10050   0.78210     9    19     2     8
 C     0.97800  -2.26700   1.46360    10     7    13    17
 C     2.94660  -1.74880  -0.45970    11    12    20     8
 C     1.79290  -2.41890  -0.74970    12    11    13    24
 C     0.88980  -2.86360   0.21640    13    14    10    12
 C    -0.34760  -2.91820  -0.30550    14    13    45    18
 C    -2.50420  -1.03310   1.73140    15    16    50     5
 C    -1.51030  -1.98270   1.51700    16    15    17    18
 C    -0.21160  -1.76020   2.01340    17    10    16     4
 C    -1.55020  -2.60080   0.23970    18    14    49    16
 C     4.02290   0.20070  -0.52610    19    20     9    22
 C     3.38190  -0.71890  -1.27230    20    19    11    26
 C     2.50260   1.24670  -1.70300    21    23    22    26
 C     3.48920   1.42780  -0.74720    22    19    29    21
 C     1.30190   1.91270  -1.61960    23    21    38    27
 C     0.97130  -1.95810  -1.80910    24    45    25    12
 C     1.16410  -0.69190  -2.39710    25    24    26    37
 C     2.41220  -0.10870  -2.07270    26    20    21    25
 C     0.97630   2.64130  -0.46020    27    30    28    23
 C     1.81310   2.49530   0.62260    28    29    27    41
 C     3.05690   1.95970   0.44070    29    28     2    22
 C    -0.38620   2.66230  -0.34110    30    27    34    31
 C    -1.07560   2.42480   0.87610    31    32    30    40
 C    -2.42010   2.08250   0.75170    32    42    31    35
 C    -2.21720   1.63030  -1.48610    33    34    35    39
 C    -0.93900   2.06970  -1.48520    34    33    38    30
 C    -3.09030   1.89890  -0.46200    35    44    33    32
 C    -1.39450  -0.45270  -2.35040    36    46    39    37
 C    -0.05370   0.08630  -2.55210    37    38    25    36
 C     0.10650   1.43370  -2.12620    38    34    23    37
 C    -2.49700   0.34730  -1.95840    39    33    47    36
 C    -0.22380   1.80580   1.86200    40    41    31     6
 C     1.17850   1.90540   1.72800    41     1    28    40
 C    -2.99920   1.10910   1.54110    42    43     5    32
 C    -3.98740   0.47240   0.87150    43    44    42    50
 C    -4.03240   0.92960  -0.38640    44    43    35    47
 C    -0.29320  -2.35710  -1.53020    45    46    14    24
 C    -1.46450  -1.74460  -1.79230    46    45    36    49
 C    -3.59930  -0.07590  -1.20080    47    44    48    39
 C    -3.41060  -1.22410  -0.44840    48    49    47    50
 C    -2.37670  -2.05230  -0.75620    49    48    18    46
 C    -3.58470  -0.82550   0.86750    50    43    48    15
