    50
C50-C1-252                                                                      
 C     1.05850  -2.62480   1.32120     1    16     3     8
 C    -1.30550  -2.37720   1.45940     2    32    10     3
 C    -0.02240  -2.07790   2.01550     3     1     2     4
 C     0.15930  -0.74000   2.61220     4     6     5     3
 C     1.42850  -0.05360   2.40010     5    15     7     4
 C    -1.01370   0.07570   2.67220     6    31    37     4
 C     1.40800   1.35860   2.16060     7    36    48     5
 C     0.90360  -3.14560   0.03250     8     9    47     1
 C    -0.29340  -3.08580  -0.58710     9     8    10    13
 C    -1.44680  -2.81730   0.10840    10     9    11     2
 C    -2.50280  -2.10210  -0.46490    11    26    12    10
 C    -2.24580  -1.48680  -1.68120    12    17    11    14
 C    -0.03010  -2.42380  -1.80520    13    14    42     9
 C    -0.99130  -1.58440  -2.30240    14    13    22    12
 C     2.45870  -0.75060   1.73310    15    16    50     5
 C     2.27460  -2.00820   1.23780    16    15     1    46
 C    -2.62230  -0.16920  -1.78060    17    18    12    24
 C    -1.65610   0.49050  -2.43270    18    17    20    22
 C    -0.31430   2.31580  -1.96400    19    30    20    21
 C    -1.55130   1.74550  -1.94610    20    18    19    27
 C     0.83410   1.53150  -2.29900    21    40    19    23
 C    -0.59670  -0.32310  -2.75520    22    18    14    23
 C     0.73240   0.14730  -2.65610    23    22    21    44
 C    -3.16080   0.61980  -0.78470    24    25    17    27
 C    -3.42490   0.00430   0.41570    25    24    34    26
 C    -3.08400  -1.34920   0.52280    26    32    11    25
 C    -2.42780   1.83600  -0.83370    27    20    24    28
 C    -1.92970   2.48180   0.34660    28    29    33    27
 C    -0.70280   3.15410   0.20680    29    30    35    28
 C     0.04960   3.15400  -0.96100    30    41    19    29
 C    -2.22200  -0.36050   2.23650    31    32    34     6
 C    -2.35800  -1.54040   1.64860    32    31    26     2
 C    -2.11360   1.72970   1.54020    33    34    28    37
 C    -2.87460   0.59380   1.52950    34    31    33    25
 C     0.28790   2.99710   1.17120    35    38    36    29
 C     0.19490   2.06260   2.15420    36    37    35     7
 C    -0.98890   1.44570   2.36980    37    36     6    33
 C     1.52340   2.96640   0.61480    38    41    35    48
 C     2.77910   1.13090  -0.97400    39    40    43    49
 C     1.87660   2.03160  -1.50260    40    41    39    21
 C     1.37110   3.03280  -0.72470    41    30    38    40
 C     1.33820  -2.09390  -1.82260    42    47    13    44
 C     2.80130  -0.21310  -1.37710    43    45    39    44
 C     1.74900  -0.75740  -2.18980    44    43    23    42
 C     3.30910  -0.94670  -0.30690    45    46    50    43
 C     2.85040  -2.15780   0.00010    46    47    45    16
 C     1.93590  -2.74790  -0.75300    47    46     8    42
 C     2.26270   1.98240   1.20510    48    38    49     7
 C     3.04870   1.16340   0.42450    49    50    48    39
 C     3.24120  -0.11140   0.76880    50    49    45    15
