    50
C50-C1-232                                                                      
 C    -3.14550   0.14050  -1.40840     1     2    11    37
 C    -2.28880   0.99540  -1.92200     2     1    21     5
 C     1.16710   1.60520  -1.94740     3     4    15     7
 C    -0.22410   1.74240  -2.08080     4     5     3    18
 C    -1.05320   0.66050  -2.39830     5     2     4     6
 C    -0.58890  -0.67190  -2.41860     6     5    13    12
 C     1.76060   0.28960  -2.14350     7     8     3    13
 C     3.00210   0.03440  -1.44010     8    45     9     7
 C     3.40030   0.92750  -0.46640     9    14    33     8
 C    -3.25340  -1.51900  -0.02120    10    46    36    11
 C    -2.79300  -1.16940  -1.29740    11     1    10    12
 C    -1.54780  -1.63320  -1.80590    12    48    11     6
 C     0.85540  -0.86690  -2.35720    13    50     6     7
 C     2.79210   2.07310  -0.25400    14     9    15    19
 C     1.74390   2.50710  -1.00500    15    14    16     3
 C     0.90320   3.10860  -0.09190    16    17    20    15
 C    -0.42990   3.10160  -0.15870    17    16    18    22
 C    -1.02830   2.61920  -1.28170    18    21    17     4
 C     2.46920   2.13440   1.07450    19    20    14    32
 C     1.30660   2.75510   1.14910    20    19    16    30
 C    -2.26130   2.10650  -1.17770    21     2    18    25
 C    -0.92490   2.62100   1.08130    22    24    30    17
 C    -2.10740   0.79940   1.96370    23    35    24    31
 C    -2.15160   1.94850   1.14160    24    22    23    25
 C    -2.98640   1.84250  -0.02090    25    21    37    24
 C     2.50950  -1.79110   1.12770    26    39    34    27
 C     1.51130  -1.23510   2.01210    27    26    42    28
 C     1.60350   0.21940   2.24720    28    32    29    27
 C     0.34710   0.96950   2.39820    29    31    30    28
 C     0.23520   2.26270   1.81140    30    20    22    29
 C    -0.86930   0.28380   2.45790    31    29    43    23
 C     2.71460   0.90900   1.63310    32    19    33    28
 C     3.52520   0.26150   0.72910    33    34     9    32
 C     3.42800  -1.01610   0.45940    34    33    26    45
 C    -2.92230  -0.27180   1.67330    35    38    36    23
 C    -3.73360  -0.36410   0.58710    36    37    35    10
 C    -3.70690   0.66770  -0.26110    37    36     1    25
 C    -2.17120  -1.37910   1.82190    38    35    46    43
 C     2.09760  -2.65130   0.14150    39    40    44    26
 C     0.86290  -3.08340   0.08850    40    39    41    49
 C    -0.08840  -2.85520   1.00830    41    40    47    42
 C     0.20130  -1.85910   2.01000    42    43    41    27
 C    -0.92420  -1.10730   2.32970    43    38    42    31
 C     2.45930  -2.20630  -1.10220    44    45    39    50
 C     3.27380  -1.19940  -0.90580    45    44     8    34
 C    -2.40070  -2.22880   0.77810    46    47    38    10
 C    -1.30820  -2.85000   0.29530    47    46    41    48
 C    -0.93720  -2.65250  -1.06300    48    49    12    47
 C     0.37530  -2.85290  -1.15220    49    48    40    50
 C     1.29900  -2.11940  -1.83440    50    49    44    13
