    50
C50-C1-112                                                                      
 C    -2.85490   1.79750  -0.22670     1     4     2    32
 C    -3.41500   0.82990   0.58290     2     1     3     6
 C    -3.89230  -0.33950   0.00860     3     5    31     2
 C    -1.90260   2.61830   0.24950     4     1    38    18
 C    -3.50520  -1.33910   0.83750     5     7     8     3
 C    -2.63260   0.47530   1.73690     6     7    19     2
 C    -2.72510  -0.88540   1.81500     7     5    23     6
 C    -2.79070  -2.26810   0.17180     8     5    26    11
 C    -0.35930  -2.42560  -1.24020     9    10    25    13
 C     0.87980  -2.00660  -1.73000    10     9    15    28
 C    -1.60550  -2.50740   0.83600    11     8    13    23
 C     0.79330  -2.59450   0.85760    12    13    14    17
 C    -0.40270  -2.77810   0.16650    13    12    11     9
 C     2.05500  -2.45660   0.26610    14    45    15    12
 C     2.11300  -2.15720  -1.08950    15    29    14    10
 C     2.01710  -1.20740   2.00010    16    17    45    24
 C     0.78130  -1.74540   1.99520    17    16    22    12
 C    -1.21920   2.35930   1.43740    18    48     4    19
 C    -1.44420   1.15430   2.11360    19    18     6    21
 C     1.09170   0.96560   2.32990    20    24    49    21
 C    -0.25250   0.39060   2.51500    21    22    19    20
 C    -0.37230  -1.06340   2.37440    22    23    17    21
 C    -1.57430  -1.60650   1.94470    23     7    22    11
 C     2.20820   0.13300   2.15000    24    16    50    20
 C    -1.51940  -1.81410  -1.74730    25    26     9    34
 C    -2.72160  -1.84260  -1.10610    26     8    31    25
 C     2.20180  -0.31150  -2.16680    27    29    28    39
 C     0.94790  -0.76790  -2.41980    28    27    33    10
 C     2.99690  -1.17100  -1.48190    29    27    47    15
 C    -2.56610   0.15760  -1.93380    30    31    32    34
 C    -3.39350  -0.66570  -1.23130    31    26    30     3
 C    -2.35110   1.44980  -1.52160    32    30    35     1
 C    -0.15920   0.06520  -2.56540    33    28    34    36
 C    -1.41320  -0.52820  -2.34710    34    30    33    25
 C    -1.12710   2.10180  -1.71810    35    38    32    36
 C     0.04090   1.46940  -2.25000    36    35    33    40
 C     0.18590   3.12910  -0.09880    37    38    41    48
 C    -0.98220   2.96060  -0.67430    38    37     4    35
 C     2.43730   0.98390  -1.79860    39    27    44    40
 C     1.36160   1.88050  -1.75250    40    39    41    36
 C     1.36420   2.69310  -0.57630    41    37    43    40
 C     3.14270   1.39800   0.38990    42    43    50    44
 C     2.12160   2.28030   0.54070    43    42    41    49
 C     3.43080   0.82860  -0.82980    44    42    47    39
 C     2.88300  -1.71360   1.08910    45    16    46    14
 C     3.76410  -0.75920   0.66880    46    47    45    50
 C     3.84450  -0.48150  -0.65710    47    46    29    44
 C     0.05620   2.77180   1.19810    48    49    37    18
 C     1.17900   2.17160   1.59850    49    48    20    43
 C     3.28150   0.37370   1.29360    50    42    46    24
