    50
C50-C1-50                                                                       
 C    -4.11760   0.41730  -0.18220     1     2     3    33
 C    -4.00380  -0.59890   0.68210     2     1     6    34
 C    -3.42890   1.51710   0.23490     3     1     4     7
 C    -2.58290   1.99300  -0.73530     4     5     3    15
 C    -1.46590   2.66690  -0.42800     5     4    12     9
 C    -3.09460  -0.17200   1.57830     6     2     7    25
 C    -2.73930   1.13650   1.41100     7     6     8     3
 C    -1.46020   1.59190   1.72300     8     7     9    28
 C    -0.97390   2.60460   0.89540     9    10     8     5
 C     0.31340   2.88910   0.83720    10     9    11    30
 C     0.70380   3.09240  -0.44460    11    17    12    10
 C    -0.31770   2.67420  -1.22490    12    11     5    13
 C    -0.05700   1.57060  -2.10610    13    12    14    19
 C    -1.18940   0.69630  -2.24190    14    16    15    13
 C    -2.46820   0.98920  -1.69170    15    33     4    14
 C    -0.89060  -0.67940  -2.24470    16    35    14    31
 C     1.96090   2.74630  -0.52900    17    11    21    18
 C     2.35430   1.80090  -1.43920    18    17    45    19
 C     1.33080   1.07860  -2.15510    19    18    37    13
 C     3.28890   1.43570   0.55220    20    21    45    24
 C     2.41280   2.40480   0.71750    21    20    17    30
 C     1.57280  -1.32490   1.94700    22    48    26    23
 C     2.03110   0.01590   2.01110    23    22    24    29
 C     3.25210   0.25800   1.25800    24    20    47    23
 C    -2.09710  -1.08320   1.79280    25     6    27    43
 C     0.20640  -1.64380   1.97330    26    27    22    50
 C    -0.80110  -0.70320   2.19580    27    26    25    28
 C    -0.41990   0.69450   2.24580    28    27    29     8
 C     1.00270   1.04260   2.14400    29    30    23    28
 C     1.31760   2.28260   1.53110    30    10    21    29
 C    -1.75810  -1.58690  -1.60100    31    32    41    16
 C    -2.98510  -1.24470  -1.12080    32    31    33    34
 C    -3.39370   0.04600  -1.27860    33    32     1    15
 C    -3.39690  -1.69050   0.13420    34     2    43    32
 C     0.40290  -1.16120  -2.18320    35    16    40    37
 C     2.70850  -0.92410  -1.58720    36    44    38    37
 C     1.56320  -0.35530  -2.21860    37    35    36    19
 C     2.59070  -2.07820  -0.83180    38    39    46    36
 C     1.42020  -2.75210  -0.71030    39    38    40    49
 C     0.33940  -2.35130  -1.42960    40    39    41    35
 C    -0.94760  -2.49350  -0.95100    41    31    40    42
 C    -1.20490  -2.80090   0.42780    42    43    50    41
 C    -2.34400  -2.17280   0.90390    43    42    34    25
 C     3.58660  -0.16780  -0.84640    44    45    36    47
 C     3.36910   1.13010  -0.78350    45    44    20    18
 C     3.22280  -1.94340   0.38160    46    47    48    38
 C     3.75770  -0.73150   0.40820    47    46    44    24
 C     2.21930  -2.31670   1.21150    48    49    46    22
 C     1.22030  -3.00910   0.62630    49    48    50    39
 C    -0.01230  -2.78730   1.14520    50    49    42    26
