    50
C50-C1-16                                                                       
 C    -4.60600  -0.02720  -0.17420     1     2     4    32
 C    -4.24100   0.66590   0.93520     2     3     1     6
 C    -3.40910  -0.06840   1.70590     3     2    37     5
 C    -4.07270   0.59020  -1.26230     4     8     1     7
 C    -2.22610   0.61260   2.00680     5     3    24    23
 C    -3.45220   1.70580   0.52550     6     7     2    24
 C    -3.35410   1.66650  -0.83040     7     6     4    19
 C    -3.13860  -0.16590  -1.87670     8     4    31    11
 C    -0.61620  -1.44220  -1.89350     9    10    15    30
 C     0.67980  -1.88480  -1.64410    10     9    33    17
 C    -1.95410   0.51800  -2.09590    11     8    15    19
 C     1.42250   2.28540  -0.57420    12    40    13    21
 C     0.31240   1.88280  -1.27800    13    12    18    14
 C     0.50180   0.71520  -2.12280    14    15    16    13
 C    -0.69750  -0.05360  -2.26360    15    11    14     9
 C     1.83330   0.16490  -2.10910    16    17    41    14
 C     1.88220  -1.23290  -1.92240    17    39    10    16
 C    -0.94900   2.15430  -0.72360    18    19    13    28
 C    -2.09510   1.70810  -1.36570    19     7    18    11
 C     2.62390   1.97590   1.18710    20    46    21    29
 C     1.36150   2.34920   0.82550    21    20    27    12
 C    -0.93970  -1.35390   1.95840    22    48    36    23
 C    -0.98020   0.02090   2.27530    23     5    22    26
 C    -2.25970   1.77590   1.22460    24     6    28     5
 C     1.56160   0.04710   2.14610    25    29    49    26
 C     0.26250   0.71010   2.16380    26    23    27    25
 C     0.18070   1.94860   1.39850    27    21    28    26
 C    -1.03010   2.21260   0.73500    28    24    27    18
 C     2.74750   0.73840   1.77900    29    20    50    25
 C    -1.73890  -1.94880  -1.14050    30    31    35     9
 C    -2.99530  -1.34500  -1.19350    31     8    30    32
 C    -3.86470  -1.19830  -0.09830    32    37     1    31
 C     0.95620  -2.62650  -0.49710    33    38    34    10
 C    -0.01900  -2.59850   0.43180    34    33    35    48
 C    -1.33650  -2.41630   0.13810    35    34    36    30
 C    -2.00670  -1.88300   1.22690    36    37    35    22
 C    -3.22130  -1.29810   1.12350    37    36     3    32
 C     2.24000  -2.38910  -0.18470    38    33    39    43
 C     2.92210  -1.75060  -1.16810    39    45    38    17
 C     2.71360   1.96650  -0.84430    40    46    12    41
 C     2.97560   0.84660  -1.59090    41    40    44    16
 C     3.69660  -1.04400   0.69300    42    50    43    45
 C     2.60580  -1.80790   1.01300    43    42    38    49
 C     4.13200   0.29600  -0.97220    44    45    47    41
 C     3.93110  -1.01390  -0.67350    45    39    44    42
 C     3.56330   2.05110   0.20030    46    47    40    20
 C     4.39370   1.00840   0.19240    47    46    50    44
 C     0.27070  -1.90380   1.61650    48    22    49    34
 C     1.53740  -1.36030   1.82310    49    48    43    25
 C     3.89360   0.19900   1.17800    50    42    47    29
