    50
C50-C1-196                                                                      
 C     1.29590   2.49670  -1.49680     1     2     4    30
 C     0.76410   1.60580  -2.36460     2     3     1     6
 C    -0.56460   1.68140  -2.37590     3     2    32    16
 C     2.40800   2.09070  -0.77270     4     5     1     8
 C     2.44170   2.36510   0.56240     5    19    28     4
 C     1.19170   0.32130  -2.53120     6     2     7    10
 C     2.31340  -0.16190  -1.85330     7     9     6     8
 C     2.89650   0.76550  -0.92880     8    18     4     7
 C     2.29240  -1.51260  -1.50200     9    21     7    13
 C     0.00140  -0.43670  -2.66780    10    12    16     6
 C    -1.27960  -2.13630  -1.61600    11    12    47    17
 C    -0.04630  -1.75620  -2.20660    12    10    13    11
 C     1.13410  -2.32870  -1.69590    13    44    12     9
 C    -2.85460   1.08810  -1.04770    14    48    33    15
 C    -2.29870   0.08430  -1.92820    15    16    17    14
 C    -1.10470   0.43850  -2.55610    16     3    15    10
 C    -2.40040  -1.26700  -1.50490    17    50    15    11
 C     3.26280   0.29280   0.35770    18    20    19     8
 C     2.82540   1.25010   1.21920    19     5    18    22
 C     3.08730  -1.01620   0.67130    20    18    21    25
 C     2.86370  -1.95820  -0.31000    21    27    20     9
 C     1.86380   0.94320   2.18040    22    23    19    26
 C     0.99180   1.99160   2.09680    23    40    28    22
 C     1.59510  -2.50680   1.29720    24    27    25    36
 C     2.15850  -1.34190   1.71010    25    24    26    20
 C     1.38930  -0.36070   2.37380    26    22    25    38
 C     2.09640  -2.93550   0.12980    27    21    44    24
 C     1.33700   2.88930   1.13660    28     5    29    23
 C     0.20510   3.28220   0.49530    29    28    30    31
 C     0.16880   3.13270  -0.89410    30    29    32     1
 C    -0.87320   2.74690   1.22570    31    34    29    40
 C    -0.99340   2.61470  -1.48560    32     3    33    30
 C    -2.11620   2.27140  -0.77040    33    32    34    14
 C    -2.05630   2.37760   0.62530    34    35    31    33
 C    -2.77590   1.34880   1.11390    35    34    48    41
 C     0.25090  -2.72590   1.34440    36    24    37    45
 C    -0.61990  -1.83340   2.00910    37    42    36    38
 C    -0.05530  -0.57530   2.53200    38    26    39    37
 C    -0.93830   0.60340   2.50300    39    41    40    38
 C    -0.34760   1.85460   2.20720    40    23    39    31
 C    -2.24920   0.44090   2.02370    41    43    35    39
 C    -1.94370  -1.84230   1.54320    42    43    46    37
 C    -2.74670  -0.74960   1.59680    43    42    41    49
 C     1.08010  -3.25170  -0.64960    44    27    45    13
 C    -0.07940  -3.32020   0.07500    45    47    44    36
 C    -2.25550  -2.44690   0.31620    46    47    50    42
 C    -1.27430  -2.94790  -0.44750    47    46    45    11
 C    -3.43540   0.66190   0.13420    48    49    35    14
 C    -3.52390  -0.63130   0.47010    49    50    48    43
 C    -3.08470  -1.59370  -0.34090    50    49    46    17
