    50
C50-Cs-4                                                                        
 C    -4.25600   0.36580  -1.06740     1     5     2    28
 C    -3.10350   0.69710  -1.72150     2     1    30     7
 C     1.05630   1.10450  -1.95920     3     4    13    35
 C    -0.31720   1.01250  -1.98680     4     3     6    31
 C    -4.37660   1.19730  -0.00340     5     1     9     8
 C    -1.09070   1.88710  -1.15130     6     7     4    15
 C    -2.46670   1.73790  -1.08930     7     2     8     6
 C    -3.24890   1.98720   0.02620     8     5    17     7
 C    -4.21340   0.37850   1.06870     9    10     5    20
 C    -3.10750   0.73640   1.76590    10     9    23    17
 C     1.06870   1.14290   1.97570    11    12    41    18
 C    -0.30860   1.04940   2.01330    12    11    16    22
 C     1.76830   1.96040  -1.12120    13    48     3    14
 C     1.03430   2.34400   0.01730    14    15    13    18
 C    -0.36530   2.30680   0.02500    15    14    16     6
 C    -1.10030   1.94550   1.21370    16    17    12    15
 C    -2.47610   1.79790   1.15820    17    10     8    16
 C     1.79050   2.02470   1.16440    18    50    11    14
 C    -2.86210  -1.35660   1.30910    19    21    20    23
 C    -4.00180  -0.91070   0.65630    20     9    28    19
 C    -1.91960  -2.11220   0.66650    21    19    24    26
 C    -0.91220  -0.23240   2.28860    22    23    25    12
 C    -2.28930  -0.32620   2.06360    23    10    22    19
 C    -0.60940  -2.18230   1.07360    24    21    40    25
 C    -0.00950  -1.32330   2.03120    25    42    24    22
 C    -1.94210  -2.15910  -0.73450    26    27    29    21
 C    -2.90060  -1.41480  -1.37590    27    26    28    30
 C    -4.03300  -0.94670  -0.72730    28     1    20    27
 C    -0.61700  -2.22250  -1.11280    29    26    40    32
 C    -2.29690  -0.35850  -2.06480    30     2    27    31
 C    -0.91720  -0.26160  -2.28990    31    30    32     4
 C    -0.01270  -1.35400  -2.06130    32    33    29    31
 C     1.39740  -1.20800  -2.03970    33    35    32    37
 C     3.20690   0.42040  -1.76990    34    38    48    35
 C     1.95320   0.06830  -2.22490    35    34     3    33
 C     3.44430  -1.47190  -0.67570    36    46    38    37
 C     2.20510  -1.91010  -1.10750    37    39    36    33
 C     4.10430  -0.35420  -1.10170    38    34    36    44
 C     1.51420  -2.36500  -0.00180    39    40    37    43
 C     0.18050  -2.49390  -0.01360    40    39    24    29
 C     1.94830   0.08200   2.20010    41    47    11    42
 C     1.40110  -1.19790   2.01200    42    41    25    43
 C     2.22500  -1.92320   1.10760    43    46    39    42
 C     4.56230   0.36190  -0.00990    44    38    49    45
 C     4.08530  -0.34540   1.09460    45    46    47    44
 C     3.46590  -1.48800   0.68960    46    45    36    43
 C     3.20040   0.45940   1.74660    47    50    45    41
 C     3.09690   1.59820  -1.08520    48    34    49    13
 C     3.91790   1.58980   0.01420    49    50    48    44
 C     3.12430   1.66540   1.11840    50    49    47    18
