    50
C50-C1-82                                                                       
 C     2.03490  -2.22260  -1.03070     1     2    11    17
 C     3.07770  -1.41410  -0.99760     2     1     3    14
 C     3.02790  -0.20180  -1.63480     3     2    39     6
 C     2.11620   2.24990  -1.14910     4    38    23     5
 C     1.37500   1.50110  -2.03470     5     4    48     6
 C     1.78150   0.16720  -2.28130     6     5     3    10
 C    -1.39040  -2.21390  -1.10780     7     8    12    36
 C    -0.11150  -2.55900  -0.93770     8     7    11    16
 C    -0.71260  -0.34210  -2.46370     9    12    10    50
 C     0.67060  -0.76290  -2.39340    10    11     9     6
 C     0.89340  -1.99200  -1.71490    11     1     8    10
 C    -1.74920  -1.21320  -2.00980    12    47     7     9
 C     2.62540  -2.03300   1.05960    13    17    15    14
 C     3.56250  -1.34970   0.28330    14    22     2    13
 C     1.89480  -1.29680   1.98440    15    13    20    18
 C     0.42860  -2.85740   0.32020    16    17     8    19
 C     1.77150  -2.69490   0.20880    17     1    16    13
 C     0.51050  -1.49710   2.16660    18    27    15    19
 C    -0.32920  -2.38120   1.40980    19    16    37    18
 C     2.17510   0.07380   2.14160    20    21    28    15
 C     3.18700   0.67580   1.39500    21    24    22    20
 C     3.88880  -0.04830   0.43430    22    14    39    21
 C     1.20890   2.73910  -0.28040    23    44     4    25
 C     2.83090   1.87140   0.81850    24    21    38    25
 C     1.58690   2.45350   1.00130    25    23    24    31
 C    -1.35070  -0.01360   2.39190    26    27    34    29
 C    -0.02730  -0.26750   2.52820    27    26    28    18
 C     0.94540   0.70870   2.38910    28    27    20    31
 C    -1.78530   1.24970   1.97220    29    40    26    30
 C    -0.80800   2.14120   1.48440    30    29    31    43
 C     0.57410   1.96910   1.82610    31    25    28    30
 C    -4.03610  -0.52770   0.28310    32    35    33    45
 C    -3.34880  -0.25780   1.43280    33    32    40    34
 C    -2.26400  -0.95910   1.91380    34    33    26    37
 C    -3.36140  -1.42300  -0.48000    35    32    47    36
 C    -2.30280  -2.20040  -0.05000    36    35     7    37
 C    -1.71570  -2.08770   1.24660    37    34    19    36
 C     3.21520   1.83830  -0.50200    38    39     4    24
 C     3.74080   0.64430  -0.76090    39    38    22     3
 C    -3.01150   1.06680   1.42280    40    41    29    33
 C    -3.42990   1.60070   0.25520    41    40    45    42
 C    -2.36240   2.12280  -0.45110    42    41    43    49
 C    -1.14720   2.54160   0.11290    43    44    42    30
 C    -0.05390   2.62590  -0.72750    44    23    43    48
 C    -4.09560   0.65390  -0.44040    45    41    46    32
 C    -3.38520   0.47740  -1.58230    46    47    45    49
 C    -2.99240  -0.80520  -1.64640    47    46    12    35
 C     0.02720   1.83820  -1.90280    48    50     5    44
 C    -2.32320   1.36660  -1.66970    49    46    50    42
 C    -1.05910   1.04750  -2.22960    50    48    49     9
