    50
C50-C2v-242                                                                     
 C    -2.35120   2.10980   0.85230     1     3     2    40
 C    -3.20830   1.07700   1.12390     2     1    28     7
 C    -1.13750   2.17920   1.48170     3     1     4     9
 C    -0.00300   2.66070   0.83370     4    20     3     6
 C     1.19240   2.39990  -1.18570     5    22     6    30
 C    -0.00720   2.78480  -0.59560     6    39     5     4
 C    -2.77440  -0.01220   1.86460     7     8     2    10
 C    -3.23440  -1.08950   1.12730     8    13    23     7
 C    -0.70840   1.15980   2.34730     9    14     3    10
 C    -1.49500  -0.00970   2.46220    10    11     7     9
 C    -0.70820  -1.17610   2.34270    11    16    12    10
 C    -1.14200  -2.20760   1.49410    12    13    33    11
 C    -2.36020  -2.11640   0.87480    13    25    12     8
 C     0.69050   1.16660   2.33410    14     9    20    15
 C     1.48200  -0.00220   2.44730    15    17    14    16
 C     0.69210  -1.17390   2.33690    16    11    43    15
 C     2.75720  -0.01170   1.84690    17    18    21    15
 C     3.22090  -1.08930   1.11450    18    42    45    17
 C     2.33970   2.10370   0.85530    19    20    21    22
 C     1.13200   2.19150   1.48200    20    19     4    14
 C     3.20780   1.07390   1.10420    21    19    47    17
 C     2.37790   2.26150  -0.50710    22    50    19     5
 C    -3.87370  -0.65960  -0.01730    23    28    24     8
 C    -3.19200  -1.32540  -1.00920    24    25    23    29
 C    -2.36240  -2.26060  -0.48710    25    24    35    13
 C    -3.21230   1.35880  -1.03160    26    40    28    27
 C    -2.44090   0.69570  -1.97580    27    29    26    31
 C    -3.86690   0.69000  -0.03210    28    23    26     2
 C    -2.42890  -0.68940  -1.97480    29    27    24    36
 C     1.22010   1.34840  -2.13620    30    49    32     5
 C    -1.21050   1.36180  -2.12110    31    27    32    39
 C     0.00150   0.71770  -2.48110    32    30    31    38
 C    -0.00450  -2.67920   0.84970    33    12    43    34
 C     0.00380  -2.78180  -0.58290    34    41    35    33
 C    -1.19210  -2.39850  -1.17990    35    25    34    36
 C    -1.20880  -1.35360  -2.13800    36    29    38    35
 C     1.21580  -1.35700  -2.12340    37    48    38    41
 C     0.00510  -0.72680  -2.48810    38    36    37    32
 C    -1.20910   2.43260  -1.18870    39    40     6    31
 C    -2.38220   2.29660  -0.50940    40    26    39     1
 C     1.20480  -2.41400  -1.17320    41    44    34    37
 C     2.35200  -2.12110   0.86770    42    43    44    18
 C     1.13780  -2.20960   1.49500    43    42    33    16
 C     2.38010  -2.26530  -0.49520    44    46    41    42
 C     3.87900  -0.66470  -0.02430    45    47    46    18
 C     3.20490  -1.33560  -1.02100    46    44    45    48
 C     3.88260   0.68750  -0.04030    47    45    50    21
 C     2.44330  -0.68370  -1.98070    48    49    46    37
 C     2.45860   0.70370  -1.99000    49    50    48    30
 C     3.22980   1.35600  -1.04460    50    22    47    49
