    50
C50-C1-68                                                                       
 C    -2.90980  -1.75780  -0.94950     1     2     4    23
 C    -3.67290  -1.48370   0.10890     2     1     8     6
 C    -0.61360  -2.31470  -1.21220     3     4     5    24
 C    -1.77760  -2.42050  -0.53680     4     3     1    42
 C     0.60380  -2.51000  -0.61280     5     3    36    50
 C    -3.97260  -0.15980   0.04640     6     2     7    12
 C    -3.46200   0.32850   1.23240     7    13     9     6
 C    -2.94400  -1.79800   1.20920     8     9     2    42
 C    -2.82460  -0.67210   1.92070     9     8    18     7
 C    -2.76690   1.59200  -1.03370    10    19    12    11
 C    -2.42240   2.21790   0.19010    11    13    15    10
 C    -3.42850   0.37350  -1.11130    12     6    10    23
 C    -2.68590   1.44760   1.32150    13     7    11    14
 C    -1.59510   1.12790   2.14230    14    17    13    18
 C    -1.16920   2.81790   0.04790    15    20    16    11
 C    -0.15760   2.63880   0.96670    16    15    17    32
 C    -0.37840   1.73660   2.00140    17    14    47    16
 C    -1.63310  -0.24540   2.42720    18     9    14    44
 C    -1.65520   1.80170  -1.79830    19    20    10    21
 C    -0.74670   2.59780  -1.23070    20    19    31    15
 C    -0.99020   0.84390  -2.51710    21    19    22    25
 C    -1.49760  -0.45590  -2.45010    22    21    24    23
 C    -2.73210  -0.66510  -1.79490    23     1    22    12
 C    -0.45220  -1.37230  -2.23260    24    28     3    22
 C     0.38640   1.17470  -2.44450    25    27    31    21
 C     2.64120   0.50030  -1.84270    26    34    27    30
 C     1.40170   0.21660  -2.44590    27    25    26    28
 C     0.90970  -1.09800  -2.28040    28    24    36    27
 C     3.59090   1.16280   0.03180    29    37    30    41
 C     2.74630   1.62620  -0.97340    30    29    33    26
 C     0.53070   2.31210  -1.61520    31    20    33    25
 C     1.18940   2.53110   0.60760    32    16    39    33
 C     1.61850   2.41740  -0.74830    33    31    30    32
 C     3.45310  -0.48110  -1.28620    34    37    35    26
 C     2.83820  -1.66150  -0.92990    35    36    34    48
 C     1.59930  -1.94140  -1.40660    36    35     5    28
 C     4.16580  -0.03830  -0.22010    37    38    29    34
 C     3.93230  -0.86610   0.81700    38    40    37    48
 C     1.82220   1.70930   1.54600    39    41    47    32
 C     3.18730  -0.20820   1.72390    40    38    41    45
 C     3.00070   1.08270   1.29210    41    39    40    29
 C    -1.74490  -2.40320   0.87190    42     8     4    43
 C    -0.48230  -2.16900   1.49880    43    42    50    44
 C    -0.42020  -0.99560   2.38360    44    18    46    43
 C     2.03790  -0.91870   2.07970    45    40    46    49
 C     0.83690  -0.32150   2.48630    46    45    44    47
 C     0.80300   1.09290   2.27710    47    17    39    46
 C     3.10930  -1.86990   0.40910    48    38    35    49
 C     1.99200  -2.03580   1.22380    49    48    50    45
 C     0.73640  -2.48420   0.81390    50    49    43     5
