    50
C50-C2v-125                                                                     
 C     1.51320   2.10100   1.11970     1     2    33     8
 C     0.14570   2.11900   1.18810     2     1     4    31
 C    -2.65940   1.83740   1.06460     3    32     5    10
 C    -0.52480   1.19120   2.04830     4     5     2     9
 C    -1.91320   1.13170   1.96930     5     6     3     4
 C    -2.65070  -0.00020   2.10190     6     5    50    13
 C     3.56960   1.16420   1.07430     7    34    45     8
 C     2.34050   1.16260   1.74410     8     1     7    48
 C     0.25620  -0.00480   2.32640     9    48     4    49
 C    -3.82670   1.19480   0.68720    10    11    13     3
 C    -3.83280   1.18930  -0.68720    11    12    10    16
 C    -3.79990   0.00450  -1.37950    12    11    27    15
 C    -3.82430  -0.00210   1.37500    13    14    10     6
 C    -3.82970  -1.18530   0.68000    14    13    15    42
 C    -3.80580  -1.19540  -0.69410    15    14    25    12
 C    -2.67030   1.84610  -1.06050    16    32    19    11
 C     0.14060   2.12250  -1.19530    17    18    21    31
 C     1.50920   2.10900  -1.12220    18    33    17    24
 C    -1.92510   1.15640  -1.98590    19    27    16    21
 C     0.24120   0.00870  -2.31450    20    23    21    29
 C    -0.53760   1.20710  -2.06040    21    19    17    20
 C     2.32270  -1.15040  -1.72260    22    30    37    23
 C     1.65720   0.01930  -2.15350    23    22    24    20
 C     2.35400   1.18410  -1.76040    24    36    18    23
 C    -2.65690  -1.84970  -1.07360    25    39    26    15
 C    -1.91530  -1.13930  -1.98450    26    27    25    29
 C    -2.63980   0.00170  -2.11890    27    26    19    12
 C     0.14810  -2.12850  -1.18740    28    30    29    40
 C    -0.52580  -1.20320  -2.04760    29    26    28    20
 C     1.51400  -2.11390  -1.11370    30    28    41    22
 C    -0.59760   2.48410  -0.00130    31    32     2    17
 C    -1.96330   2.34000   0.00210    32     3    16    31
 C     2.20950   2.47330  -0.00390    33    34    18     1
 C     3.42170   1.94580  -0.02810    34    33    36     7
 C     4.16250   0.01490  -0.70160    35    36    37    45
 C     3.60520   1.17780  -1.12070    36    34    35    24
 C     3.56140  -1.14980  -1.06550    37    38    35    22
 C     3.40990  -1.96020   0.00100    38    41    37    46
 C    -1.95530  -2.33320  -0.00190    39    25    42    40
 C    -0.58590  -2.47960   0.01140    40    39    28    44
 C     2.20130  -2.50180   0.01330    41    38    43    30
 C    -2.66080  -1.82890   1.06100    42    50    39    14
 C     1.52400  -2.12100   1.14100    43    41    44    47
 C     0.15290  -2.12890   1.20810    44    43    49    40
 C     4.16550  -0.00500   0.69900    45    46     7    35
 C     3.58880  -1.17210   1.09460    46    38    45    47
 C     2.35500  -1.17610   1.76190    47    46    43    48
 C     1.67230  -0.00870   2.16840    48    47     8     9
 C    -0.52910  -1.20450   2.06490    49    50    44     9
 C    -1.91460  -1.14140   1.98300    50     6    42    49
