    50
C50-C1-48                                                                       
 C     1.81750   0.65550   2.11980     1     2    35     5
 C     3.03940   0.77830   1.49770     2     1    12    31
 C     0.72490  -2.53390   1.16040     3    17     4     8
 C     1.73540  -1.72010   1.66430     4     3    13     5
 C     1.18640  -0.57710   2.29510     5     1     6     4
 C    -0.19100  -0.37100   2.45470     6     7     5    40
 C    -1.17490  -1.30320   2.09870     7     6     9     8
 C    -0.66240  -2.39570   1.37200     8     7     3    49
 C    -2.47540  -0.85390   1.79840     9    10     7    41
 C    -3.28040  -1.49070   0.84170    10    50    48     9
 C     4.19390  -0.00540  -0.21420    11    30    12    15
 C     3.66330  -0.35060   0.98640    12    11    13     2
 C     2.91770  -1.51050   0.91520    13    12     4    14
 C     2.90860  -1.81480  -0.47410    14    16    15    13
 C     3.52750  -0.78110  -1.11690    15    11    14    18
 C     1.75430  -2.33050  -0.96370    16    17    14    20
 C     0.81150  -2.87640  -0.17170    17    27    16     3
 C     2.67960   0.02220  -1.89430    18    19    15    21
 C     2.94350   1.28840  -1.43730    19    25    30    18
 C     0.97960  -1.64630  -1.92810    20    28    21    16
 C     1.37080  -0.34460  -2.28650    21    20    18    23
 C    -1.12070   0.18870  -2.33410    22    26    29    23
 C     0.28620   0.61270  -2.34070    23    21    22    24
 C     0.60990   1.89310  -1.69610    24    37    25    23
 C     1.87800   2.08390  -1.15890    25    19    24    32
 C    -2.12840   1.10200  -1.93120    26    36    47    22
 C    -0.40480  -2.86000  -0.68620    27    17    49    28
 C    -0.35920  -2.00750  -1.77540    28    27    29    20
 C    -1.45540  -1.19120  -2.02590    29    28    45    22
 C     3.87220   1.27510  -0.44530    30    11    31    19
 C     3.20230   1.82440   0.58730    31    30    32     2
 C     2.04850   2.48250   0.20280    32    31    34    25
 C    -0.33380   2.77050   0.34540    33    34    38    37
 C     0.87990   2.53460   0.95790    34    33    32    35
 C     0.77510   1.57000   1.98200    35     1    40    34
 C    -1.71150   2.20610  -1.24890    36    37    42    26
 C    -0.43890   2.50830  -1.03970    37    36    24    33
 C    -1.60330   2.44640   0.86160    38    42    33    39
 C    -1.70640   1.44500   1.86080    39    40    38    41
 C    -0.45780   0.99730   2.30170    40    35    39     6
 C    -2.79000   0.53270   1.72970    41    44    39     9
 C    -2.51020   2.36250  -0.16560    42    43    36    38
 C    -3.55320   1.53040  -0.21450    43    42    44    47
 C    -3.83260   0.65740   0.79480    44    50    43    41
 C    -2.65930  -1.46440  -1.28200    45    46    48    29
 C    -3.62570  -0.51530  -1.03780    46    47    50    45
 C    -3.32440   0.75290  -1.34600    47    46    26    43
 C    -2.57820  -2.23350  -0.08080    48    49    10    45
 C    -1.38730  -2.78040   0.22510    49    27    48     8
 C    -4.04350  -0.56040   0.24620    50    10    46    44
