    50
C50-C1-22                                                                       
 C     3.33890   0.18200  -1.51780     1    36     2     4
 C     3.43450  -1.04340  -0.90770     2     3     1    24
 C     2.39630  -1.89470  -1.10420     3     2    10     9
 C     2.10440   0.59790  -2.03260     4     1    38     8
 C    -1.83100   1.88710  -1.37230     5    19     6    43
 C    -0.54090   1.59330  -1.84110     6     5    40     7
 C    -0.34360   0.21470  -2.29920     7     8     6    21
 C     1.01190  -0.26260  -2.27520     8     4     9     7
 C     1.23500  -1.59230  -1.84730     9    17     3     8
 C     1.90590  -2.57360  -0.02790    10    11     3    22
 C     0.62750  -2.86790  -0.21710    11    10    13    17
 C    -1.39310  -2.43380   0.82550    12    13    31    15
 C    -0.08370  -2.65990   0.90760    13    12    11    30
 C    -3.19510  -1.70430  -0.19530    14    15    18    44
 C    -2.02250  -2.32360  -0.43100    15    14    12    16
 C    -1.17220  -1.95190  -1.50900    16    17    15    21
 C     0.14900  -2.31830  -1.38840    17    16    11     9
 C    -3.75200  -0.76800  -0.99030    18    14    49    20
 C    -2.97540   1.16490  -1.52930    19     5    20    50
 C    -2.78720  -0.16760  -1.80480    20    19    18    21
 C    -1.49420  -0.67340  -2.09210    21    20    16     7
 C     2.07180  -2.05760   1.24140    22    23    10    30
 C     3.02210  -1.08970   1.38440    23    22    26    24
 C     3.94530  -0.76770   0.37170    24    32     2    23
 C     0.62930   1.50220   1.90340    25    48    34    27
 C     2.55540   0.11330   1.91790    26    33    23    27
 C     1.19350   0.27560   2.31300    27    25    26    28
 C     0.23710  -0.79840   2.35390    28    30    27    29
 C    -1.20200  -0.57040   2.26800    29    31    47    28
 C     0.77150  -1.97980   1.76320    30    13    22    28
 C    -2.04830  -1.55300   1.66500    31    44    12    29
 C     4.23060   0.55660   0.38420    32    36    24    33
 C     3.30300   1.07250   1.24690    33    32    35    26
 C     1.32470   2.29920   0.98580    34    35    39    25
 C     2.61090   2.08630   0.64200    35    34    33    37
 C     3.94270   1.16240  -0.78990    36    37    32     1
 C     2.98890   2.11250  -0.69050    37    36    35    38
 C     1.90050   1.89250  -1.53300    38    40    37     4
 C     0.35190   2.65580   0.06930    39    41    34    40
 C     0.58790   2.26250  -1.27880    40    38    39     6
 C    -0.88050   2.51020   0.62450    41    43    39    48
 C    -3.17520   1.89470   0.37940    42    50    43    46
 C    -2.01550   2.42890  -0.08780    43    41    42     5
 C    -3.24610  -1.25500   1.08960    44    45    31    14
 C    -3.87230  -0.07200   1.03700    45    44    49    46
 C    -3.00750   0.95340   1.41460    46    45    42    47
 C    -1.73120   0.75710   2.03330    47    48    46    29
 C    -0.72600   1.68230   1.74400    48    25    47    41
 C    -4.42020   0.17160  -0.21300    49    50    45    18
 C    -3.95750   1.35180  -0.58650    50    49    42    19
