    50
C50-C1-166                                                                      
 C     2.75750   2.25800   0.65760     1    33     2     7
 C     1.86030   2.83590  -0.13470     2     1     4    35
 C    -0.48280   3.00540  -0.10480     3     4    18     6
 C     0.68850   3.00060   0.54270     4     3     2     9
 C    -1.74840   2.02830  -1.57850     5     6    38    48
 C    -0.49670   2.48570  -1.42620     6     5    36     3
 C     2.08870   1.78060   1.70660     7     1     8     9
 C     2.41950   0.47690   1.89090     8     7    12    19
 C     0.79270   2.22850   1.71730     9     7    10     4
 C    -0.29580   1.46580   2.16990    10     9    17    11
 C     0.05730   0.08140   2.52660    11    15    12    10
 C     1.40990  -0.41590   2.31020    12     8    13    11
 C     1.55010  -1.73220   1.79780    13    20    26    12
 C    -2.25170  -0.48170   2.03340    14    15    44    16
 C    -0.98860  -0.84780   2.37330    15    14    25    11
 C    -2.63780   0.78340   1.68370    16    14    50    17
 C    -1.61760   1.76580   1.64240    17    16    18    10
 C    -1.68210   2.60530   0.47340    18    48     3    17
 C     3.40180   0.16720   0.89570    19    21    33     8
 C     2.51440  -2.02420   0.85140    20    23    21    13
 C     3.34730  -1.06900   0.32710    21    19    20    27
 C     0.69120  -3.12550   0.24940    22    23    24    26
 C     1.96260  -2.81970  -0.10050    23    22    28    20
 C    -0.34620  -2.94560  -0.67120    24    46    22    29
 C    -0.82380  -2.13320   1.83510    25    26    15    45
 C     0.43440  -2.51720   1.49250    26    25    13    22
 C     3.10560  -1.17690  -1.04060    27    28    31    21
 C     2.26130  -2.20980  -1.27160    28    23    27    30
 C    -0.05130  -2.17790  -1.81840    29    40    30    24
 C     1.24070  -1.75700  -2.05960    30    28    29    34
 C     2.69780  -0.06570  -1.75000    31    32    27    34
 C     2.89590   1.17590  -1.21270    32    31    33    35
 C     3.44410   1.29020   0.06340    33     1    32    19
 C     1.46940  -0.40500  -2.36430    34    30    31    37
 C     1.85510   2.11320  -1.33290    35     2    32    36
 C     0.62790   1.83210  -1.97230    36     6    35    37
 C     0.38320   0.50450  -2.51920    37    34    39    36
 C    -2.03310   0.80110  -2.10430    38     5    43    39
 C    -0.97200  -0.02640  -2.49760    39    38    40    37
 C    -1.14590  -1.38530  -2.08510    40    29    41    39
 C    -2.19940  -1.77270  -1.22860    41    42    46    40
 C    -3.20510  -0.88340  -0.88180    42    43    41    47
 C    -3.12850   0.38810  -1.37420    43    42    49    38
 C    -2.88460  -1.44720   1.31340    44    47    14    45
 C    -1.95730  -2.40920   1.05060    45    44    46    25
 C    -1.64200  -2.65630  -0.28830    46    24    45    41
 C    -3.63520  -0.74940   0.43100    47    44    50    42
 C    -2.57710   2.26220  -0.51540    48    49     5    18
 C    -3.50650   1.30200  -0.41580    49    48    50    43
 C    -3.65050   0.59910   0.71710    50    49    47    16
