    50
C50-C1-105                                                                      
 C     1.93990   2.09780   1.17670     1     2     9     3
 C     0.62340   2.47330   1.38060     2     4     1    16
 C     2.52980   2.16680  -0.09460     3     8     1    22
 C    -0.11560   2.98260   0.34400     4     5     2    21
 C    -1.44530   2.81680   0.33580     5     4    39    14
 C     3.89950   0.20740   0.33900     6    20     8     7
 C     3.10940   0.00780   1.46690     7     6     9    11
 C     3.44040   1.22850  -0.46150     8     3    18     6
 C     2.17800   0.94360   1.91760     9     1    10     7
 C     0.94640   0.59560   2.47040    10    13    16     9
 C     2.65030  -1.32240   1.40270    11    12    19     7
 C     1.39240  -1.64570   1.86640    12    11    33    13
 C     0.55030  -0.72320   2.48410    13    10    50    12
 C    -2.18290   2.08000   1.24760    14    46     5    15
 C    -1.43890   1.25380   2.13450    15    14    16    49
 C    -0.03880   1.54820   2.21810    16    10     2    15
 C     3.20820  -0.64850  -1.52280    17    18    20    24
 C     2.98420   0.67090  -1.62270    18    17    23     8
 C     3.11250  -1.87980   0.21470    19    20    32    11
 C     3.86410  -0.94480  -0.37630    20    19    17     6
 C     0.33410   2.72890  -0.95300    21    22    29     4
 C     1.59290   2.28090  -1.13950    22    21    23     3
 C     1.80490   1.22130  -2.02200    23    18    22    27
 C     2.10450  -1.44690  -1.70850    24    17    26    32
 C    -0.25180  -1.72120  -1.99240    25    26    35    31
 C     0.88370  -0.96840  -2.27110    26    25    24    27
 C     0.68120   0.45940  -2.46790    27    23    28    26
 C    -0.65900   1.00300  -2.35170    28    29    27    36
 C    -0.76670   2.25690  -1.66360    29    39    21    28
 C    -1.50400  -2.74560  -0.50960    30    40    31    45
 C    -0.22800  -2.71690  -0.97570    31    30    34    25
 C     2.09990  -2.35950  -0.60940    32    34    19    24
 C     0.54070  -2.51830   1.20850    33    12    43    34
 C     0.87990  -2.81850  -0.14870    34    32    31    33
 C    -1.56200  -1.23190  -2.06970    35    40    25    36
 C    -1.83430   0.14940  -2.22320    36    35    37    28
 C    -3.01300   0.57860  -1.49480    37    38    42    36
 C    -2.93280   1.75940  -0.81290    38    39    37    46
 C    -1.87050   2.52250  -0.91530    39    38     5    29
 C    -2.35230  -2.01070  -1.25010    40    41    30    35
 C    -3.33220  -1.53060  -0.47590    41    42    40    44
 C    -3.68690  -0.25760  -0.60200    42    41    47    37
 C    -0.77840  -2.29020   1.61060    43    45    33    50
 C    -2.95990  -1.76960   0.82320    44    45    41    48
 C    -1.84990  -2.56600   0.81330    45    43    44    30
 C    -3.23300   1.56170   0.51590    46    47    38    14
 C    -3.65840   0.31000   0.65670    47    46    42    48
 C    -3.01810  -0.56780   1.52080    48    47    44    49
 C    -1.85670  -0.13880   2.24340    49    50    48    15
 C    -0.78350  -1.07970   2.34700    50    13    43    49
