    50
C50-C2-95                                                                       
 C     3.59400   1.53480   0.35120     1     2     5    30
 C     2.45890   2.21070   0.55880     2     1    13    39
 C    -1.74420   2.31390   0.60580     3    40     4    49
 C    -0.35010   2.45760   0.63730     4     3    12    38
 C     3.63210   0.53470   1.25800     5     1     6     8
 C     3.89210  -0.57400   0.51200     6     7     5    23
 C     3.06370  -1.62270   0.68500     7    16     6    11
 C     2.48140   0.59190   2.04350     8     5    10    13
 C     0.31480  -0.35290   2.54460     9    10    14    20
 C     1.67940  -0.53980   2.30320    10     9     8    11
 C     2.01670  -1.70320   1.57250    11     7    19    10
 C     0.38820   1.88530   1.73710    12    13    14     4
 C     1.76230   1.75150   1.64470    13     2    12     8
 C    -0.33760   0.88360   2.40950    14    50     9    12
 C     1.34030  -2.55010  -0.37330    15    16    27    19
 C     2.59990  -2.03560  -0.50600    16     7    15    22
 C    -2.58200  -2.00150   0.47180    17    42    18    47
 C    -1.32820  -2.52520   0.36570    18    17    21    26
 C     0.97690  -2.44010   0.99120    19    21    11    15
 C    -0.69040  -1.28740   2.24520    20    45     9    21
 C    -0.35340  -2.32620   1.34900    21    19    18    20
 C     3.02450  -1.14570  -1.46230    22    16    24    23
 C     3.89960  -0.25290  -0.84310    23    30     6    22
 C     1.95490  -0.67890  -2.21030    24    22    28    25
 C     0.70010  -1.30420  -2.24010    25    24    36    27
 C    -0.97810  -2.44900  -1.00130    26    27    34    18
 C     0.35620  -2.35350  -1.34960    27    26    15    25
 C     1.70160   0.69640  -2.25300    28    31    29    24
 C     2.50380   1.55960  -1.52460    29    28    30    39
 C     3.66900   1.10040  -0.92680    30     1    23    29
 C     0.33570   0.86030  -2.37670    31    28    36    32
 C    -0.37920   1.87740  -1.70840    32    33    31    38
 C    -1.75300   1.73350  -1.61420    33    40    32    37
 C    -2.03030  -1.71590  -1.58800    34    42    26    35
 C    -1.67420  -0.54340  -2.29370    35    36    37    34
 C    -0.31100  -0.37500  -2.53360    36    35    31    25
 C    -2.48020   0.58180  -2.01450    37    44    35    33
 C     0.36770   2.47440  -0.63200    38    39    32     4
 C     1.75480   2.33930  -0.61720    39     2    38    29
 C    -2.47080   2.21450  -0.55560    40    41    33     3
 C    -3.60650   1.54970  -0.36250    41    40    48    44
 C    -3.09850  -1.63720  -0.71760    42    17    43    34
 C    -3.92850  -0.58900  -0.52410    43    42    44    46
 C    -3.65360   0.52590  -1.25000    44    41    43    37
 C    -1.94790  -0.67440   2.21100    45    47    20    50
 C    -3.90100  -0.24400   0.82750    46    48    47    43
 C    -3.01140  -1.11790   1.43540    47    17    46    45
 C    -3.66520   1.10950   0.91500    48    41    46    49
 C    -2.49950   1.55030   1.53430    49    50    48     3
 C    -1.69640   0.70490   2.27290    50    14    49    45
