    50
C50-C1-176                                                                      
 C    -2.48930  -1.30530   1.36360     1     2    31    13
 C    -3.38490  -0.44830   0.73440     2     5    25     1
 C     1.38020  -2.30720   1.65020     3    40    14     4
 C     0.07880  -2.06160   1.98750     4     3    12    30
 C    -3.09990   0.81580   1.11680     5     2     8     6
 C    -3.06790   1.64310  -0.00250     6    18     7     5
 C    -2.05970   2.56530  -0.05060     7     6    10    20
 C    -2.09740   0.80790   2.04280     8     9     5    13
 C    -1.19590   1.82540   2.03940     9     8    10    11
 C    -1.27330   2.79480   1.06010    10    24     7     9
 C     0.16990   1.58950   2.25860    11     9    47    16
 C    -0.31750  -0.80370   2.44900    12     4    13    16
 C    -1.67310  -0.50240   2.20930    13     8    12     1
 C     2.29940  -1.30360   1.53330    14     3    15    48
 C     2.01550   0.01170   1.95370    15    14    17    16
 C     0.67470   0.26730   2.46100    16    11    15    12
 C     2.71900   1.03730   1.26610    17    46    50    15
 C    -3.26080   0.78750  -1.04750    18     6    25    22
 C     0.08270   3.10150  -0.61910    19    23    24    20
 C    -1.11880   2.58470  -1.11230    20    19     7    21
 C    -1.12380   1.51670  -2.07150    21    22    20    29
 C    -2.24690   0.67410  -1.99950    22    27    18    21
 C     1.29120   2.73870  -1.12550    23    19    44    28
 C    -0.04290   3.17500   0.75470    24    10    47    19
 C    -3.59630  -0.47860  -0.59970    25    26     2    18
 C    -2.86590  -1.35640  -1.28930    26    25    27    32
 C    -2.06610  -0.67020  -2.14480    27    37    26    22
 C     1.32610   1.64490  -2.00600    28    42    23    29
 C     0.17310   0.94250  -2.41190    29    28    21    36
 C    -0.69170  -2.87720   1.10920    30    31    35     4
 C    -1.92620  -2.40700   0.67740    31    30     1    32
 C    -2.09700  -2.35260  -0.74520    32    26    33    31
 C    -0.91600  -2.41660  -1.50620    33    34    37    32
 C     0.21750  -2.95990  -1.00380    34    33    35    38
 C     0.26240  -3.46160   0.28040    35    40    34    30
 C     0.32190  -0.52280  -2.47200    36    37    39    29
 C    -0.86030  -1.26150  -2.29900    37    27    33    36
 C     1.46460  -2.37350  -1.28800    38    34    41    39
 C     1.54730  -1.14260  -1.98680    39    43    38    36
 C     1.49820  -3.22360   0.68510    40    35    41     3
 C     2.31480  -2.65930  -0.20230    41    40    48    38
 C     2.50550   1.02140  -1.71670    42    45    43    28
 C     2.61250  -0.32450  -1.58460    43    42    39    49
 C     2.39590   2.62230  -0.27570    44    45    46    23
 C     3.17260   1.65000  -0.73480    45    44    50    42
 C     2.12900   2.29360   1.04650    46    47    44    17
 C     0.89840   2.55690   1.54600    47    46    24    11
 C     3.02160  -1.61260   0.33250    48    49    41    14
 C     3.39120  -0.53960  -0.40170    49    48    50    43
 C     3.50510   0.70700   0.14330    50    45    49    17
