    50
C50-C1-225                                                                      
 C     1.69320   2.64730  -0.55170     1     2    29     4
 C     2.35310   1.74340  -1.35810     2     3     1     5
 C     3.27950   0.90310  -0.79270     3     8     2    23
 C     0.33840   2.93720  -0.74050     4     7     1    33
 C     1.60570   0.97490  -2.26010     5     6    13     2
 C     0.26670   1.25180  -2.42490     6     5    19     7
 C    -0.38150   2.28800  -1.74590     7    49     4     6
 C     3.17610  -0.31160  -1.40180     8     9     3    13
 C     3.38830  -1.23840  -0.45790     9    10     8    22
 C     2.51880  -2.24350  -0.38540    10     9    15    12
 C     1.13920  -1.42130  -2.21550    11    13    12    20
 C     1.43370  -2.41190  -1.22310    12    10    18    11
 C     2.07350  -0.34200  -2.23800    13     8     5    11
 C     0.81900  -2.79750   0.90180    14    15    16    18
 C     2.09220  -2.35090   0.88970    15    10    14    25
 C    -0.09720  -2.26390   1.78090    16    14    43    26
 C    -0.91690  -2.77230  -0.74430    17    18    42    21
 C     0.40340  -2.93070  -0.44110    18    17    12    14
 C    -0.65560   0.22080  -2.60630    19     6    44    20
 C    -0.24930  -1.15240  -2.45620    20    21    11    19
 C    -1.25080  -1.93250  -1.82290    21    46    17    20
 C     3.46570  -0.61920   0.76390    22    23     9    25
 C     3.44070   0.74060   0.59070    23    22    24     3
 C     2.58830   1.47950   1.37690    24    29    23    28
 C     2.56670  -1.27210   1.61650    25    15    22    27
 C     0.29260  -1.08630   2.46730    26    35    16    27
 C     1.61060  -0.54480   2.36150    27    25    28    26
 C     1.66150   0.86730   2.26500    28    30    27    24
 C     1.85650   2.49470   0.81000    29    31    24     1
 C     0.47670   1.63890   2.29340    30    31    36    28
 C     0.66360   2.65490   1.38490    31    29    33    30
 C    -1.59130   2.61500   0.68590    32    33    48    34
 C    -0.30140   3.03290   0.50380    33    31    32     4
 C    -1.86880   1.69990   1.72750    34    37    32    36
 C    -0.87710  -0.30710   2.56800    35    26    38    36
 C    -0.80550   1.10160   2.45900    36    30    35    34
 C    -2.93310   0.96130   1.30140    37    34    40    47
 C    -1.96110  -1.03810   2.03230    38    40    43    35
 C    -3.57990  -0.88300   0.25990    39    41    40    50
 C    -3.04770  -0.39620   1.44050    40    37    39    38
 C    -2.93990  -1.92320  -0.32820    41    39    42    46
 C    -1.91690  -2.62850   0.23090    42    41    43    17
 C    -1.44260  -2.21820   1.48540    43    16    38    42
 C    -1.91610   0.70800  -2.18570    44    45    49    19
 C    -2.88740  -0.16320  -1.71250    45    46    50    44
 C    -2.50190  -1.45490  -1.53750    46    45    41    21
 C    -3.31660   1.32970   0.03920    47    50    37    48
 C    -2.40440   2.25230  -0.40130    48    47    49    32
 C    -1.71810   1.97090  -1.59240    49     7    48    44
 C    -3.64550   0.19260  -0.60850    50    47    39    45
