    50
C50-C1-202                                                                      
 C    -3.08430  -1.89970   0.01640     1    28     5     9
 C    -3.20720   0.05360  -0.95530     2     5     3     8
 C    -2.47120   0.96180  -1.67480     3     2    10     6
 C    -1.81080  -1.74660  -1.78030     4     5    33     7
 C    -2.96340  -1.27970  -1.15590     5     1     2     4
 C    -1.37990   0.47450  -2.45020     6    16     7     3
 C    -0.93100  -0.86920  -2.46440     7     6     4    15
 C    -3.36450   0.23350   0.44560     8     9    12     2
 C    -3.18460  -1.01020   1.00710     9     1     8    19
 C    -2.09390   2.18300  -1.11990    10    13    11     3
 C    -2.24990   2.38070   0.24390    11    24    10    12
 C    -2.76920   1.33710   1.02120    12     8    11    17
 C    -0.86440   2.49130  -1.64310    13    16    25    10
 C     0.94020  -2.25510  -1.70970    14    46    32    15
 C     0.50750  -1.10340  -2.46180    15    14     7    49
 C    -0.45340   1.46770  -2.42240    16    13    50     6
 C    -1.86580   1.11970   2.09000    17    21    12    18
 C    -1.46080  -0.18090   2.48140    18    19    17    20
 C    -2.14760  -1.25160   1.90210    19     9    18    27
 C    -0.06260  -0.32710   2.69620    20    23    29    18
 C    -0.92610   2.10930   1.96740    21    24    22    17
 C     0.40710   1.97350   2.19490    22    21    23    42
 C     0.86120   0.73200   2.60470    23    37    22    20
 C    -1.13510   2.88110   0.88520    24    21    11    26
 C     0.22680   3.01640  -1.00390    25    13    26    43
 C     0.09740   3.22260   0.36100    26    24    25    42
 C    -1.43920  -2.37510   1.40490    27    28    30    19
 C    -2.05930  -2.71800   0.20660    28     1    33    27
 C     0.63290  -1.48480   2.27920    29    20    34    30
 C    -0.05420  -2.49080   1.54140    30    27    31    29
 C     0.65780  -2.95510   0.40420    31    36    32    30
 C     0.03320  -2.92070  -0.86620    32    33    14    31
 C    -1.29640  -2.74820  -0.93820    33    32    28     4
 C     1.97490  -1.12490   2.01400    34    35    37    29
 C     2.67910  -1.76650   1.00380    35    36    40    34
 C     1.94940  -2.59410   0.20380    36    31    46    35
 C     2.08900   0.26610   2.18010    37    23    34    38
 C     2.84220   1.03090   1.27050    38    39    41    37
 C     3.45830   0.33720   0.26130    39    40    44    38
 C     3.42500  -1.00130   0.13160    40    39    47    35
 C     2.26340   2.17540   0.70310    41    42    38    45
 C     1.08600   2.70510   1.20700    42    41    26    22
 C     1.33950   2.33180  -1.50840    43    45    25    50
 C     3.10830   0.89290  -0.93010    44    45    39    48
 C     2.41220   2.03270  -0.69490    45    44    43    41
 C     2.15630  -2.25550  -1.09760    46    47    36    14
 C     3.04720  -1.26870  -1.16020    47    46    48    40
 C     2.72070  -0.11220  -1.81820    48    47    44    49
 C     1.46530   0.02290  -2.47540    49    50    48    15
 C     0.89140   1.30940  -2.39390    50    16    49    43
