    50
C50-C1-153                                                                      
 C     0.21980   3.04850  -0.29040     1     5    31     2
 C     0.76460   2.41800  -1.42830     2     3     4     1
 C     2.06780   1.95390  -1.32010     3     2    30    10
 C    -0.17700   1.63720  -2.13010     4     8     7     2
 C    -1.11980   3.04910  -0.08600     5     1    40     6
 C    -2.09220   2.50420  -0.88740     6     5    48     7
 C    -1.56300   1.67950  -1.88200     7     6    18     4
 C     0.16420   0.32770  -2.51950     8    13     4     9
 C     1.45780  -0.20730  -2.29370     9    10     8    16
 C     2.45140   0.67600  -1.80260    10    11     9     3
 C     3.50310   0.27300  -1.00690    11    12    25    10
 C     3.34650  -0.94990  -0.46380    12    11    17    20
 C    -1.01950  -0.40800  -2.46290    13    14    18     8
 C    -0.97320  -1.73990  -2.10840    14    13    15    46
 C     0.27610  -2.30560  -1.80140    15    24    14    16
 C     1.49640  -1.59440  -1.86950    16    15    17     9
 C     2.44580  -1.88380  -0.84150    17    12    22    16
 C    -2.08910   0.39630  -2.08640    18    13     7    50
 C     2.31650  -1.59510   1.37200    19    20    22    28
 C     3.28460  -0.78340   0.88780    20    26    19    12
 C     0.78890  -3.12740   0.32350    21    22    23    24
 C     1.97120  -2.49610   0.33250    22    21    17    19
 C    -0.09760  -2.84010   1.32010    23    44    21    27
 C    -0.00810  -3.20330  -0.78780    24    47    21    15
 C     3.68460   1.17780  -0.02250    25    30    11    26
 C     3.39000   0.52580   1.14500    26    20    25    33
 C     0.05930  -1.74730   2.14430    27    23    36    28
 C     1.26930  -1.04820   2.19340    28    27    19    32
 C     2.05880   2.26200   0.99030    29    31    30    33
 C     2.82460   2.17900  -0.15650    30    25    29     3
 C     0.81590   2.75880   0.95130    31    29    34     1
 C     1.21110   0.39750   2.34200    32    33    28    35
 C     2.31190   1.12120   1.76750    33    26    29    32
 C    -0.21870   2.31300   1.76750    34    40    31    35
 C    -0.10620   1.02270   2.39550    35    34    32    37
 C    -1.20470  -1.15380   2.20900    36    27    37    41
 C    -1.34270   0.24150   2.35890    37    36    38    35
 C    -2.52810   0.77920   1.76300    38    39    43    37
 C    -2.51840   2.02820   1.20580    39    40    38    48
 C    -1.38850   2.70350   1.19650    40    39     5    34
 C    -2.09330  -1.92990   1.40520    41    44    42    36
 C    -3.00980  -1.27350   0.61670    42    43    41    45
 C    -3.28230   0.02080   0.87910    43    42    49    38
 C    -1.36260  -2.93520   0.86140    44    23    41    47
 C    -2.94400  -1.41100  -0.80050    45    46    50    42
 C    -1.98310  -2.29300  -1.29480    46    47    45    14
 C    -1.33020  -3.16630  -0.48260    47    24    46    44
 C    -3.06700   1.97520  -0.06500    48    49     6    39
 C    -3.53650   0.72680  -0.26040    49    48    43    50
 C    -3.12730  -0.10150  -1.27340    50    49    45    18
