    50
C50-C1-52                                                                       
 C     3.47890   1.34050  -0.06040     1    31     4     2
 C     2.47320   1.93370  -0.80830     2     1     3    22
 C     1.38610   2.58310  -0.22790     3    17     2     6
 C     3.12420   0.93700   1.21390     4     5     1    11
 C     1.96410   1.38660   1.77230     5     4     6     9
 C     1.15550   2.34280   1.16380     6     7     5     3
 C    -0.13430   2.26850   1.68260     7     8     6    47
 C    -1.25490   2.59940   0.95170     8    16     7    21
 C     1.07740   0.52990   2.44630     9    47     5    14
 C     2.40460  -1.25800   1.63910    10    11    35    14
 C     3.43730  -0.41010   1.24970    11    32     4    10
 C    -0.03990  -2.51340   1.06450    12    34    48    13
 C     0.00700  -1.60590   2.17620    13    15    14    12
 C     1.23050  -0.88520   2.32390    14    10    13     9
 C    -1.24590  -0.99020   2.41660    15    50    46    13
 C    -1.01390   2.80880  -0.36960    16    19     8    17
 C     0.21080   2.66660  -0.96510    17    16     3    25
 C    -2.98630   1.72830  -0.24340    18    19    20    21
 C    -2.00100   2.23520  -1.06370    19    16    24    18
 C    -3.60310   0.53900  -0.62100    20    45    18    30
 C    -2.46930   1.90790   1.06700    21    43     8    18
 C     2.22220   1.04230  -1.88740    22    23    26     2
 C     3.11360   0.01940  -1.68070    23    31    22    37
 C    -1.40170   1.58360  -2.11090    24    27    19    25
 C    -0.03290   1.82110  -2.07620    25    24    26    17
 C     0.93310   0.84650  -2.39080    26    22    25    29
 C    -1.88590   0.33880  -2.37580    27    24    30    28
 C    -0.97060  -0.71760  -2.48660    28    27    40    29
 C     0.44070  -0.52030  -2.50550    29    28    36    26
 C    -3.00170  -0.11600  -1.69910    30    39    27    20
 C     4.01690   0.27010  -0.69530    31    32     1    23
 C     4.04170  -0.80350   0.09260    32    31    33    11
 C     3.20790  -1.74510  -0.39310    33    32    35    37
 C     1.06490  -2.59470   0.22770    34    35    12    38
 C     2.30310  -2.14980   0.55320    35    34    33    10
 C     1.28010  -1.54540  -1.92170    36    37    38    29
 C     2.60040  -1.25770  -1.56620    37    23    36    33
 C     0.56630  -2.44190  -1.07580    38    41    34    36
 C    -2.84330  -1.43010  -1.43900    39    30    42    40
 C    -1.59870  -1.81260  -1.86170    40    39    41    28
 C    -0.79720  -2.54460  -1.01640    41    38    40    48
 C    -3.31070  -1.65940  -0.17950    42    39    49    45
 C    -2.54950   0.81900   1.93950    43    44    21    46
 C    -3.21620  -0.31040   1.55110    44    50    45    43
 C    -3.78780  -0.45550   0.31980    45    44    20    42
 C    -1.34770   0.40370   2.55010    46    47    15    43
 C    -0.17920   1.12250   2.47540    47    46     9     7
 C    -1.21280  -2.69630   0.31960    48    49    12    41
 C    -2.44420  -2.22760   0.73180    49    50    42    48
 C    -2.41410  -1.38000   1.79680    50    44    49    15
