    50
C50-C1-37                                                                       
 C     3.91930  -1.21540   0.26520     1     5    31     2
 C     2.86390  -1.78940   0.91310     2     1    40    10
 C    -1.26680  -2.04660   1.62200     3    41    11     4
 C     0.11220  -2.08870   1.52090     4     3    39     9
 C     3.64770  -1.34040  -1.03460     5     1     6    12
 C     2.50750  -2.02240  -1.22510     6     5    25    10
 C    -1.62410  -2.39400  -0.60220     7    26    11     8
 C    -0.26630  -2.40200  -0.86500     8     7     9    24
 C     0.65510  -2.53790   0.24700     9    10     8     4
 C     1.99810  -2.38260   0.01150    10     9     2     6
 C    -2.17240  -2.40220   0.65240    11     7     3    50
 C     3.35500  -0.09760  -1.49070    12     5    13    15
 C     3.58220   0.82230  -0.48050    13    14    12    31
 C     2.71510   1.87480  -0.40560    14    13    27    17
 C     2.14010  -0.06460  -2.17280    15    12    16    25
 C     1.25660   1.01520  -2.19510    16    15    17    22
 C     1.62920   2.05600  -1.29220    17    19    14    16
 C    -0.67680   2.62500  -0.93740    18    19    23    35
 C     0.62660   2.74410  -0.62350    19    18    28    17
 C    -2.06460  -0.70670  -2.13860    20    26    46    21
 C    -0.68310  -0.53850  -2.41350    21    20    24    22
 C    -0.13810   0.82260  -2.44330    22    23    16    21
 C    -1.08180   1.78260  -1.97500    23    47    18    22
 C     0.22710  -1.56160  -1.95880    24    25    21     8
 C     1.59400  -1.35620  -2.00610    25     6    24    15
 C    -2.54640  -1.68470  -1.31530    26     7    20    48
 C     2.19880   2.23910   0.81300    27    28    29    14
 C     0.98720   2.77620   0.68570    28    27    19    37
 C     2.19260   1.34370   1.84780    29    30    27    32
 C     2.96580   0.22220   1.72700    30    29    31    40
 C     3.87790   0.07920   0.67600    31     1    30    13
 C     0.85390   1.33090   2.27350    32    29    33    37
 C     0.19610   0.11630   2.56340    33    34    32    39
 C    -1.20130   0.12460   2.47130    34    41    33    38
 C    -1.67730   2.54890   0.05250    35    45    18    36
 C    -1.26640   2.24580   1.37320    36    37    38    35
 C     0.09820   2.34310   1.63190    37    28    36    32
 C    -1.98440   1.17320   1.92040    38    36    34    43
 C     0.92070  -1.08960   2.20310    39    40    33     4
 C     2.27650  -0.98980   1.85910    40     2    30    39
 C    -1.91640  -0.98620   2.18470    41    34    44     3
 C    -3.57330   0.98060   0.07380    42    45    43    49
 C    -3.14840   0.58350   1.35080    43    44    42    38
 C    -3.12390  -0.77260   1.61180    44    41    50    43
 C    -2.73680   1.90750  -0.50880    45    47    35    42
 C    -2.96390   0.30950  -1.91250    46    47    20    49
 C    -2.38280   1.48510  -1.74490    47    46    45    23
 C    -3.67570  -1.33200  -0.58440    48    50    49    26
 C    -3.84310  -0.00980  -0.89650    49    48    46    42
 C    -3.38570  -1.73770   0.67500    50    48    44    11
