    50
C50-Cs-69                                                                       
 C    -2.19580   0.69280   2.20580     1     3    12     2
 C    -0.97580   1.34230   2.48120     2    10     4     1
 C    -2.19540  -0.69950   2.21460     3     1    15    28
 C     0.19700   0.67210   2.77400     4     2    29     5
 C     1.42880   1.09950   2.25560     5    39     4     6
 C     1.50010   2.13410   1.27450     6     9     7     5
 C     2.46590   1.98920   0.28780     7     8     6    19
 C     3.51070   1.07780   0.34870     8    50     7    38
 C     0.26450   2.64060   0.90390     9    10     6    21
 C    -0.88770   2.34690   1.57840    10    11     2     9
 C    -1.95680   2.34970   0.79070    11    10    16    12
 C    -2.85170   1.36730   1.15750    12    11    13     1
 C    -3.51030   0.71160   0.12980    13    12    18    14
 C    -3.50110  -0.70510   0.13110    14    15    23    13
 C    -2.83460  -1.36960   1.15480    15    22    14     3
 C    -1.53370   2.57670  -0.49190    16    17    11    21
 C    -2.15280   1.89100  -1.48880    17    16    18    49
 C    -3.26180   1.08620  -1.19730    18    26    17    13
 C     2.06480   1.99980  -1.07990    19    47    20     7
 C     0.72520   2.18880  -1.42890    20    19    21    48
 C    -0.14250   2.71870  -0.44920    21    16    20     9
 C    -1.95320  -2.35640   0.79760    22    27    25    15
 C    -3.25790  -1.08490  -1.19310    23    26    24    14
 C    -2.14470  -1.88270  -1.46870    24    25    23    41
 C    -1.52370  -2.58410  -0.48000    25    24    22    35
 C    -3.16380  -0.00060  -1.95720    26    18    23    44
 C    -0.88870  -2.35830   1.60500    27    22    28    30
 C    -0.98340  -1.35700   2.51930    28    27    29     3
 C     0.20330  -0.70990   2.79680    29    28     4    33
 C     0.26140  -2.66380   0.92050    30    27    32    35
 C     2.46640  -2.01460   0.31080    31    37    32    34
 C     1.49930  -2.15810   1.30400    32    30    31    33
 C     1.43820  -1.11870   2.28210    33    39    29    32
 C     2.04190  -1.98690  -1.04280    34    43    36    31
 C    -0.14400  -2.73410  -0.43520    35    25    36    30
 C     0.71430  -2.17800  -1.40260    36    34    35    42
 C     3.51070  -1.10290   0.36540    37    40    31    38
 C     3.30090  -0.00990   1.19640    38    39    37     8
 C     2.26940  -0.01030   2.09820    39    38    33     5
 C     3.88500  -0.65020  -0.85280    40    50    37    43
 C    -1.30720  -1.15550  -2.34080    41    44    42    24
 C     0.09690  -1.22120  -2.30570    42    41    36    46
 C     2.84880  -1.05840  -1.63540    43    40    34    45
 C    -1.98340   0.01500  -2.58940    44    26    49    41
 C     2.20770   0.02530  -2.21250    45    43    47    46
 C     0.84560   0.01750  -2.52090    46    45    48    42
 C     2.91030   1.10790  -1.69230    47    50    19    45
 C     0.09100   1.25520  -2.34360    48    49    20    46
 C    -1.30940   1.18970  -2.37810    49    44    48    17
 C     3.90650   0.68070  -0.88970    50    40    47     8
