    50
C50-C1-123                                                                      
 C     0.36950  -2.88670   0.89170     1     2     3    34
 C     1.69040  -2.68520   0.72240     2     1    23     7
 C    -0.34340  -2.16380   1.82200     3    49     1     8
 C     3.31090  -1.25510   0.44350     4     5    22     7
 C     3.55240   0.08550   0.27970     5     4     6    19
 C     2.99830   0.98610   1.16730     6    11     5    10
 C     2.39630  -1.70000   1.39140     7     2     4     9
 C     0.30080  -1.06420   2.41210     8     3    14     9
 C     1.67920  -0.79690   2.20430     9    10     7     8
 C     2.01580   0.56350   2.10760    10     9    16     6
 C     2.54920   2.17990   0.66980    11    12     6    17
 C     1.44620   2.55020   1.36070    12    13    11    16
 C     0.58000   3.11200   0.51640    13    12    46    20
 C    -0.69010  -0.06650   2.51890    14    42     8    15
 C    -0.36390   1.29750   2.34010    15    14    16    45
 C     1.02220   1.56510   2.20400    16    12    10    15
 C     2.32220   2.39510  -0.69020    17    20    18    11
 C     2.56430   1.34400  -1.52790    18    17    19    30
 C     3.31580   0.29330  -1.08240    19    21    18     5
 C     1.07420   2.93930  -0.73350    20    13    17    31
 C     2.91600  -0.87140  -1.62580    21    22    19    24
 C     3.05710  -1.88360  -0.75650    22    23    21     4
 C     2.03560  -2.71270  -0.59300    23    22     2    29
 C     1.70090  -0.61910  -2.26720    24    21    30    28
 C    -2.21570   0.91620  -1.89510    25    35    41    26
 C    -0.95380   0.43660  -2.38340    26    25    32    27
 C    -0.73230  -1.01590  -2.28300    27    28    37    26
 C     0.60430  -1.52050  -2.16350    28    24    27    29
 C     0.83890  -2.62940  -1.27270    29    23    34    28
 C     1.48720   0.77000  -2.26490    30    24    32    18
 C     0.03000   2.49640  -1.50040    31    20    39    32
 C     0.18040   1.31370  -2.27720    32    30    31    26
 C    -1.47810  -2.60320  -0.57600    33    34    37    48
 C    -0.18630  -2.96330  -0.39620    34    33    29     1
 C    -3.24330   0.11580  -1.47290    35    36    38    25
 C    -2.97380  -1.17180  -1.27940    36    35    37    47
 C    -1.79070  -1.72750  -1.62550    37    36    33    27
 C    -3.84540   0.60430  -0.35620    38    40    50    35
 C    -1.13240   2.68320  -0.75380    39    41    31    46
 C    -3.15390   1.69740  -0.01210    40    38    41    44
 C    -2.26230   2.01230  -1.01470    41    39    40    25
 C    -1.91820  -0.59700   2.10670    42    43    14    49
 C    -2.93120   0.17610   1.55390    43    42    50    44
 C    -2.56700   1.50220   1.23730    44    40    45    43
 C    -1.32750   2.07260   1.57500    45    44    46    15
 C    -0.74750   2.90900   0.58460    46    13    39    45
 C    -3.35680  -1.51870   0.00150    47    48    50    36
 C    -2.35920  -2.30610   0.47900    48    47    49    33
 C    -1.68110  -1.89940   1.63060    49     3    48    42
 C    -3.78630  -0.35630   0.58670    50    38    47    43
