    50
C50-C1-186                                                                      
 C     0.47450  -2.30450   1.90770     1     2    27     3
 C    -0.84770  -2.38340   1.80300     2     1     8    40
 C     0.85900  -1.10860   2.46790     3     1     4     9
 C     2.04700  -0.51470   2.04500     4     3     6     5
 C     2.82010  -1.20220   1.06830     5    15     4    26
 C     2.00260   0.88810   1.96670     6     4    13    11
 C    -2.51760  -0.74670   1.67840     7     8    12    19
 C    -1.39590  -1.22630   2.29830     8     7     2     9
 C    -0.34860  -0.39420   2.69310     9     8    10     3
 C    -0.41480   1.00150   2.53460    10     9    11    20
 C     0.83120   1.62980   2.27580    11    18    10     6
 C    -3.05930  -1.44540   0.61140    12    50     7    39
 C     2.66030   1.56850   0.90970    13    16    14     6
 C     3.23510   0.84110  -0.08470    14    13    15    23
 C     3.47540  -0.49700   0.06380    15    22    14     5
 C     1.88080   2.62350   0.61200    16    13    18    32
 C    -0.18900   3.26540   0.91110    17    18    44    21
 C     0.87260   2.75030   1.50950    18    17    16    11
 C    -2.60330   0.63380   1.43240    19     7    20    47
 C    -1.60580   1.56040   1.88270    20    21    19    10
 C    -1.43190   2.71090   1.06250    21    17    49    20
 C     3.24190  -1.11740  -1.08270    22    24    15    25
 C     2.62210   0.98740  -1.38250    23    24    33    14
 C     2.62520  -0.28030  -1.90020    24    22    36    23
 C     2.50410  -2.20210  -0.89590    25    22    26    28
 C     2.28100  -2.37380   0.44680    26    27    25     5
 C     1.07860  -2.87780   0.83580    27     1    26    31
 C     1.39460  -2.13620  -1.74070    28    30    25    36
 C    -0.97990  -2.03630  -1.90120    29    38    30    37
 C     0.15550  -2.66870  -1.38260    30    28    29    31
 C     0.00470  -3.16490  -0.04150    31    27    40    30
 C     1.36050   2.90420  -0.64590    32    44    16    33
 C     1.57090   1.89630  -1.63020    33    23    32    34
 C     0.38530   1.35850  -2.32230    34    46    35    33
 C     0.33720  -0.06900  -2.62030    35    36    37    34
 C     1.47250  -0.84630  -2.36900    36    24    35    28
 C    -0.89990  -0.73670  -2.48700    37    42    35    29
 C    -2.19950  -2.06970  -1.24900    38    43    39    29
 C    -2.35120  -2.51390   0.04220    39    40    38    12
 C    -1.22820  -3.00490   0.63740    40    39     2    31
 C    -2.04530   1.25000  -1.84610    41    42    46    48
 C    -2.08480  -0.08320  -2.15970    42    43    41    37
 C    -2.87830  -0.91720  -1.44140    43    38    50    42
 C     0.11760   3.41910  -0.41140    44    45    32    17
 C    -0.94410   3.00090  -1.07920    45    44    46    49
 C    -0.86380   1.98680  -1.99150    46    45    41    34
 C    -3.25800   0.74660   0.16000    47    50    48    19
 C    -2.72900   1.71270  -0.68350    48    49    47    41
 C    -1.96950   2.70920  -0.21710    49    48    45    21
 C    -3.46740  -0.52090  -0.28660    50    12    43    47
