    50
C50-C1-57                                                                       
 C    -0.17850   2.32650  -1.75210     1     2    23     3
 C     0.89430   2.64850  -1.03500     2     1    37    12
 C    -1.34550   2.42980  -1.05660     3     1     4     7
 C    -2.41590   1.54450  -1.29960     4     3     6     5
 C    -2.13150   0.51290  -2.23680     5    15     4    24
 C    -3.18430   1.18330  -0.15930     6     9     4    13
 C    -0.90340   2.79640   0.23300     7     8    12     3
 C    -1.60600   2.32120   1.28300     8     7     9    50
 C    -2.81050   1.67930   1.08860     9    17     8     6
 C     2.53730   1.73350   0.85330    10    48    11    36
 C     1.26320   2.18690   1.25960    11    10    12    49
 C     0.48730   2.82110   0.25970    12     2     7    11
 C    -3.61380  -0.15860   0.07760    13    14    16     6
 C    -3.25990  -1.10520  -0.85470    14    13    15    22
 C    -2.58600  -0.75690  -2.00550    15    19     5    14
 C    -3.33290  -0.40350   1.43450    16    17    20    13
 C    -2.93380   0.73030   2.00010    17     9    16    45
 C    -1.53000  -2.46920  -1.27740    18    19    22    26
 C    -1.57030  -1.61260  -2.29170    19    18    25    15
 C    -2.37500  -1.35660   1.78650    20    21    16    42
 C    -1.98230  -2.26950   0.85770    21    20    22    33
 C    -2.51360  -2.18970  -0.39690    22    18    21    14
 C     0.13300   1.29260  -2.57470    23    24     1    31
 C    -0.82310   0.35820  -2.78730    24    23    25     5
 C    -0.44160  -0.98620  -2.71260    25    19    24    29
 C    -0.35960  -2.73270  -0.64530    26    18    28    33
 C     1.92660  -2.30050  -0.27770    27    38    28    32
 C     0.87710  -2.33460  -1.18150    28    27    26    29
 C     0.86730  -1.34500  -2.26560    29    25    30    28
 C     1.91660  -0.35340  -2.18810    30    39    31    29
 C     1.47590   0.99550  -2.31760    31    23    37    30
 C     1.68330  -2.20380   1.12360    32    44    34    27
 C    -0.63170  -2.61130   0.74340    33    21    34    26
 C     0.38040  -2.12830   1.58550    34    32    33    43
 C     3.66000   0.48990  -0.60790    35    40    36    39
 C     2.93730   1.65060  -0.51790    36    37    35    10
 C     1.99130   1.96410  -1.42570    37    36     2    31
 C     3.08940  -1.60560  -0.46740    38    41    27    39
 C     3.02710  -0.53960  -1.34070    39    38    30    35
 C     3.99290   0.02880   0.62060    40    41    35    48
 C     3.68180  -1.26430   0.69820    41    40    44    38
 C    -1.34950  -0.69050   2.50990    42    45    43    20
 C     0.01930  -1.00660   2.43170    43    42    34    47
 C     2.70690  -1.44240   1.61380    44    41    32    46
 C    -1.76250   0.61180   2.62210    45    17    50    42
 C     2.32410  -0.21340   2.13160    46    48    44    47
 C     1.00470   0.07560   2.49810    47    46    49    43
 C     3.15180   0.67330   1.46730    48    40    10    46
 C     0.49850   1.42250   2.22720    49    50    11    47
 C    -0.89010   1.60720   2.27480    50    45    49     8
