    50
C50-C1-25                                                                       
 C     4.38640   0.16440  -0.59620     1     5     2    26
 C     3.58980   1.25510  -0.86470     2    41     1     7
 C    -0.35090   2.52210  -0.31120     3     4    18    43
 C     0.96170   2.32150  -0.61500     4     3    40     6
 C     3.84100  -0.78540  -1.37830     5     1     8     9
 C     1.26750   1.46450  -1.73580     6     7     4    20
 C     2.57860   0.94770  -1.78560     7     8     2     6
 C     2.80230  -0.36210  -2.12980     8     5    22     7
 C     3.23530  -1.66830  -0.54940     9     5    10    12
 C     3.40760  -1.28780   0.76800    10     9    11    26
 C     2.27310  -1.43200   1.55040    11    10    17    27
 C     1.97440  -2.02580  -1.00870    12    16     9    22
 C    -2.04650  -1.10120  -1.91340    13    37    14    23
 C    -0.71090  -1.54200  -1.80260    14    13    21    15
 C    -0.40740  -2.41350  -0.66610    15    39    16    14
 C     0.92540  -2.43690  -0.20590    16    12    15    17
 C     1.13200  -2.12110   1.16630    17    33    11    16
 C    -1.42920   2.20240  -1.12090    18    48     3    19
 C    -1.21810   1.13300  -2.02480    19    18    23    20
 C     0.12330   0.69800  -2.21770    20    19     6    21
 C     0.37400  -0.74010  -2.25990    21    22    14    20
 C     1.68660  -1.14870  -2.06940    22     8    21    12
 C    -2.34500   0.26730  -2.09840    23    13    50    19
 C     3.47450   0.94010   1.30610    24    41    25    26
 C     2.34180   0.85560   2.07930    25    27    24    29
 C     4.16090  -0.10720   0.73810    26    24     1    10
 C     1.75810  -0.36540   2.31550    27    25    28    11
 C     0.38950  -0.52250   2.48180    28    33    27    31
 C     1.38120   1.78300   1.65980    29    25    30    40
 C     0.00410   1.70040   1.89650    30    43    29    31
 C    -0.59170   0.50690   2.46270    31    28    30    35
 C    -1.23310  -1.95160   1.51450    32    33    34    39
 C     0.03300  -1.71570   1.88490    33    32    17    28
 C    -2.31580  -1.13200   1.82500    34    44    32    35
 C    -1.98730   0.20370   2.20460    35    36    34    31
 C    -2.81310   1.13410   1.51810    36    42    46    35
 C    -3.13960  -1.59340  -1.21910    37    47    38    13
 C    -2.74810  -2.14040  -0.04880    38    39    37    44
 C    -1.48210  -2.46920   0.24030    39    38    32    15
 C     1.88950   2.26830   0.43570    40    41     4    29
 C     3.13430   1.78460   0.28180    41     2    40    24
 C    -2.14170   2.13010   0.88210    42    43    48    36
 C    -0.82850   2.35080   1.00080    43    42    30     3
 C    -3.34100  -1.40100   0.94000    44    45    38    34
 C    -4.17940  -0.50580   0.35640    45    44    46    47
 C    -3.85000   0.78850   0.63270    46    45    49    36
 C    -4.08240  -0.65120  -1.01130    47    37    50    45
 C    -2.59390   2.23420  -0.38820    48    49    42    18
 C    -3.66200   1.45610  -0.57320    49    48    50    46
 C    -3.63100   0.51080  -1.54310    50    49    47    23
