    50
C50-C1-141                                                                      
 C    -3.28590  -0.28940  -1.43160     1     2     4     8
 C    -3.44140   0.90640  -0.85410     2     1     6    23
 C    -2.77470  -2.19780  -0.60020     3     4    40    14
 C    -3.71440  -1.24790  -0.58740     4     3     1    24
 C    -0.21240   2.44520  -1.30810     5    10     7    18
 C    -2.49730   1.87430  -0.96120     6     2    20     7
 C    -1.30370   1.67470  -1.69880     7     5     6     9
 C    -2.05310  -0.59370  -1.97540     8     1    14     9
 C    -1.01360   0.34410  -2.19910     9     8    17     7
 C     1.11480   2.13540  -1.56830    10     5    11    15
 C     1.93440   2.81180  -0.65740    11    47    21    10
 C    -0.16900  -3.11220  -0.25800    12    42    39    13
 C    -0.46410  -2.31980  -1.41970    13    14    12    16
 C    -1.76690  -1.88600  -1.53210    14    13     8     3
 C     1.44820   0.84490  -2.05580    15    10    50    17
 C     0.63080  -1.51370  -1.91200    16    48    13    17
 C     0.36150  -0.10700  -2.26080    17     9    15    16
 C    -0.20390   3.14990  -0.07020    18    21    19     5
 C    -1.20710   2.79000   0.77190    19    20    18    32
 C    -2.40090   2.39280   0.31850    20    19    22     6
 C     1.06820   3.12600   0.32880    21    18    11    38
 C    -3.03050   1.51660   1.13400    22    23    20    25
 C    -3.85170   0.69490   0.45030    23    22    24     2
 C    -3.82080  -0.64720   0.63430    24    23     4    28
 C    -1.99920   1.03290   1.93120    25    22    32    27
 C    -0.41910  -0.79410   2.22590    26    30    27    35
 C    -1.78540  -0.35350   2.07280    27    25    26    28
 C    -2.74700  -1.17390   1.37040    28    40    24    27
 C     1.10570  -2.41510   1.31240    29    30    36    42
 C    -0.13380  -2.05780   1.67600    30    29    39    26
 C     0.44540   1.50200   2.02640    31    32    38    35
 C    -0.89130   1.87410   1.81010    32    25    31    19
 C     3.01650   0.50330   1.27190    33    37    45    34
 C     2.08690  -0.38040   1.87900    34    36    33    35
 C     0.74600   0.10480   2.26760    35    31    26    34
 C     2.24460  -1.70200   1.42000    36    29    34    44
 C     2.62110   1.77170   1.01530    37    38    33    47
 C     1.41750   2.27610   1.36960    38    37    21    31
 C    -0.99850  -2.70830   0.80790    39    40    30    12
 C    -2.24890  -2.27410   0.66190    40    39     3    28
 C     2.20050  -2.76420  -0.44590    41    42    44    48
 C     1.10500  -3.16270   0.17170    42    41    12    29
 C     3.72080  -1.10850  -0.25890    43    44    45    49
 C     3.10030  -2.10250   0.37610    44    43    41    36
 C     3.86590   0.15680   0.19150    45    43    46    33
 C     3.57680   1.10570  -0.77020    46    47    45    50
 C     3.04770   2.19710  -0.21990    47    46    11    37
 C     1.93330  -1.83280  -1.45120    48    49    41    16
 C     2.90500  -0.89410  -1.35300    49    50    48    43
 C     2.73550   0.41000  -1.64250    50    49    46    15
