    50
C50-C1-107                                                                      
 C    -2.79720  -0.52340  -1.77720     1     9     3     2
 C    -1.67280  -1.21830  -2.24490     2     4     6     1
 C    -2.71140   0.87130  -1.67600     3     1    24    13
 C    -0.55590  -0.56460  -2.75400     4    25     2     5
 C     0.73110  -1.05090  -2.54930     5     4    34     8
 C    -1.45100  -2.27950  -1.36730     6    10     7     2
 C    -0.16290  -2.62350  -1.02650     7     6     8    16
 C     0.95330  -2.13120  -1.68830     8    49     7     5
 C    -3.30790  -1.21450  -0.69730     9    11    10     1
 C    -2.41410  -2.21400  -0.42130    10     6     9    18
 C    -3.67410  -0.62440   0.46420    11     9    12    14
 C    -3.53480   0.73680   0.64940    12    11    20    13
 C    -3.07530   1.48230  -0.43670    13    19    12     3
 C    -2.93640  -1.27400   1.43790    14    15    18    11
 C    -2.40940  -0.33990   2.23460    15    14    20    46
 C     0.19180  -2.73570   0.33190    16    42     7    17
 C    -0.76110  -2.38590   1.33780    17    18    16    45
 C    -2.10850  -2.24910   0.92510    18    14    10    17
 C    -2.07090   2.39590  -0.20920    19    23    22    13
 C    -2.77250   0.88840   1.80610    20    15    21    12
 C    -1.68140   1.70990   1.96110    21    22    20    39
 C    -1.33450   2.55540   0.94220    22    21    19    31
 C    -1.21430   2.43030  -1.23490    23    19    24    26
 C    -1.55770   1.50050  -2.16500    24    23    25     3
 C    -0.49020   0.82250  -2.71700    25    24     4    29
 C     0.06330   2.69870  -0.81650    26    23    28    31
 C     2.33330   2.00130  -0.75480    27    28    36    30
 C     1.16290   2.16930  -1.48760    28    27    26    29
 C     0.84190   1.16530  -2.45170    29    34    25    28
 C     2.32500   2.07720   0.67210    30    38    32    27
 C     0.00200   2.75780   0.59860    31    22    32    26
 C     1.08590   2.25070   1.33560    32    31    30    41
 C     2.81310  -0.07940  -1.77040    33    34    36    48
 C     1.63150   0.01050  -2.47590    34    33     5    29
 C     3.89570   0.59440   0.03330    35    36    38    47
 C     3.26870   1.01410  -1.05430    36    35    33    27
 C     2.85670   0.18650   1.89220    37    38    50    40
 C     3.28410   1.18000   1.09440    38    37    35    30
 C    -0.63610   0.96410   2.53630    39    41    21    46
 C     1.61430   0.15910   2.44960    40    37    41    44
 C     0.72520   1.24630   2.33110    41    39    40    32
 C     1.55260  -2.45670   0.39990    42    43    16    49
 C     2.06820  -1.78840   1.50110    43    50    42    44
 C     1.11950  -1.16290   2.32090    44    45    43    40
 C    -0.24770  -1.44090   2.31290    45    44    46    17
 C    -1.10800  -0.37240   2.64170    46    15    45    39
 C     3.79390  -0.76670   0.12210    47    35    50    48
 C     3.11750  -1.22330  -0.99390    48    47    49    33
 C     2.07350  -2.13970  -0.87660    49     8    48    42
 C     3.17590  -1.00410   1.32230    50    37    43    47
