    50
C50-C2-229                                                                      
 C    -3.58130  -0.02580   1.01540     1     2    30     4
 C    -3.60840   0.97230   0.11850     2     3     1    21
 C    -2.79370   2.02210   0.26970     3     2    17     7
 C    -2.55730  -0.02110   1.96720     4    11     1     6
 C    -0.24220   0.69330   2.45880     5     9     6    14
 C    -1.62240   1.02310   2.13900     6     4     7     5
 C    -1.83590   2.14170   1.26690     7     3    20     6
 C     2.04870   1.28450   1.88660     8     9    44    15
 C     0.74710   1.62570   2.07350     9     8    19     5
 C    -0.74890  -1.62140   2.07760    10    11    33    14
 C    -2.05500  -1.29040   1.90550    11    10    28     4
 C     1.84960  -2.12840   1.25130    12    34    48    13
 C     1.62680  -1.00750   2.12180    13    15    12    14
 C     0.24750  -0.69500   2.45500    14    10    13     5
 C     2.57910   0.02490   1.94030    15     8    50    13
 C    -0.96570   2.82310  -0.66770    16    17    18    20
 C    -2.18270   2.29570  -0.90600    17    16     3    24
 C     0.09620   2.46380  -1.47250    18    46    16    25
 C     0.51190   2.67900   1.17410    19    20    45     9
 C    -0.75490   2.82120   0.72020    20    19     7    16
 C    -3.36320   0.47930  -1.13720    21     2    22    24
 C    -3.25350  -0.88200  -1.00870    22    21    30    23
 C    -2.14840  -1.47720  -1.62560    23    22    31    27
 C    -2.43110   1.26390  -1.79390    24    17    21    26
 C    -0.06400   1.35560  -2.33050    25    37    18    26
 C    -1.31710   0.69060  -2.42980    26    24    27    25
 C    -1.20740  -0.72120  -2.37200    27    39    26    23
 C    -2.66200  -2.03240   0.93190    28    30    29    11
 C    -1.65520  -2.73930   0.34930    29    28    33    31
 C    -3.52570  -1.21560   0.31490    30    28     1    22
 C    -1.40450  -2.49180  -1.00860    31    32    23    29
 C    -0.11290  -2.46780  -1.48120    32    31    35    39
 C    -0.51240  -2.65010   1.15700    33    34    10    29
 C     0.75280  -2.78410   0.68870    34    33    12    35
 C     0.96480  -2.82060  -0.69310    35    36    32    34
 C     2.18770  -2.30300  -0.87780    36    35    48    40
 C     1.18520   0.71790  -2.36560    37    25    41    38
 C     1.29200  -0.69360  -2.41220    38    40    37    39
 C     0.04350  -1.35880  -2.33420    39    27    32    38
 C     2.39860  -1.24420  -1.74140    40    43    36    38
 C     2.12330   1.47500  -1.62220    41    42    46    37
 C     3.21050   0.88060  -0.98510    42    43    47    41
 C     3.33340  -0.48070  -1.07720    43    42    40    49
 C     2.65240   2.03010   0.92320    44    47     8    45
 C     1.64790   2.75320   0.35340    45    44    46    19
 C     1.39200   2.49470  -0.99930    46    18    45    41
 C     3.52780   1.19840   0.32830    47    44    50    42
 C     2.85390  -2.05790   0.28370    48    49    36    12
 C     3.68280  -1.00860   0.15270    49    50    48    43
 C     3.64760   0.01170   1.02090    50    49    47    15
