    50
C50-C1-40                                                                       
 C    -2.13010   2.27070  -0.23680     1     3     2    39
 C    -3.23910   1.56440  -0.62440     2    31     1     9
 C    -1.01020   2.33270  -0.99840     3     1     4     7
 C     0.22780   2.60680  -0.47760     4     3    16     6
 C     1.77610   2.18250   1.23760     5    40    18     6
 C     0.45740   2.52450   0.93010     6     5     4    38
 C    -0.83610   1.46680  -2.08390     7    11     3     8
 C    -1.80900   0.46410  -2.26020     8     9     7    10
 C    -3.02690   0.54910  -1.56630     9    21     2     8
 C    -1.19100  -0.80250  -2.37070    10    19    14     8
 C     0.53300   1.32950  -2.26230    11     7    16    13
 C     2.43930  -0.11710  -2.14830    12    28    17    13
 C     1.12250   0.09170  -2.59940    13    12    11    14
 C     0.19650  -0.97040  -2.50860    14    10    27    13
 C     2.49050   1.93410  -0.97480    15    16    18    17
 C     1.21000   2.17180  -1.37110    16    15     4    11
 C     3.16340   0.82910  -1.43550    17    15    50    12
 C     2.83490   2.04090   0.34480    18    15    49     5
 C    -1.71280  -1.85530  -1.60170    19    20    22    10
 C    -2.84750  -1.65410  -0.84330    20    21    19    23
 C    -3.65300  -0.54340  -0.96740    21    29    20     9
 C    -0.59560  -2.53330  -1.14130    22    27    19    25
 C    -2.73140  -1.85980   0.53580    23    30    24    20
 C    -1.51520  -2.27030   1.01500    24    23    25    34
 C    -0.48980  -2.77940   0.23020    25    45    24    22
 C     1.81140  -2.19090  -1.20560    26    28    27    44
 C     0.55820  -2.12010  -1.78440    27    26    22    14
 C     2.77710  -1.28020  -1.49060    28    26    47    12
 C    -4.19220  -0.15580   0.22810    29    31    30    21
 C    -3.43610  -0.85190   1.12880    30    23    29    32
 C    -3.94000   1.13240   0.45010    31    29     2    33
 C    -2.69250   0.03270   1.91850    32    33    30    35
 C    -3.04360   1.29390   1.46450    33    31    39    32
 C    -0.86190  -1.53510   2.01400    34    41    24    35
 C    -1.38990  -0.25160   2.35550    35    32    34    37
 C     0.96560   0.39730   2.51800    36    40    42    37
 C    -0.38630   0.78320   2.41860    37    36    35    38
 C    -0.67080   2.00890   1.66840    38    39     6    37
 C    -1.97200   2.10140   1.15240    39    33    38     1
 C     2.01570   1.15780   2.09940    40     5    36    48
 C     0.48940  -1.81420   1.94190    41    42    34    45
 C     1.44400  -0.90680   2.32330    42    41    36    46
 C     2.98630  -1.65060   0.64540    43    47    46    44
 C     1.93420  -2.45010   0.16300    44    45    26    43
 C     0.74120  -2.62630   0.83970    45    25    44    41
 C     2.73560  -0.85340   1.77680    46    48    42    43
 C     3.60670  -1.01990  -0.43950    47    28    50    43
 C     3.14060   0.46790   1.75230    48    40    49    46
 C     3.74890   1.05690   0.67750    49    50    48    18
 C     3.96390   0.30410  -0.43370    50    49    47    17
