    50
C50-C1-54                                                                       
 C    -0.10120   2.11630  -1.82550     1     4     2    29
 C     1.01670   1.46520  -2.19130     2     1    23     6
 C    -1.00760   2.85890  -0.01500     3     4     5    35
 C     0.13710   2.86290  -0.73910     4     1     3     9
 C    -0.83970   2.43470   1.29070     5     3    50    11
 C     2.07160   1.93290  -1.36650     6     7     9     2
 C     3.14340   1.13890  -1.08150     7     6     8    15
 C     3.15650  -0.12260  -1.62980     8     7    13    22
 C     1.42560   2.67540  -0.34780     9     4    10     6
 C     1.66710   2.34930   1.00620    10    14     9    11
 C     0.45410   2.13240   1.73870    11     5    44    10
 C     3.89320  -0.33010   0.44820    12    13    17    15
 C     3.66100  -1.01380  -0.70450    13    16    12     8
 C     2.75160   1.48800   1.24340    14    20    15    10
 C     3.56300   0.99620   0.22530    15     7    12    14
 C     2.77130  -2.03410  -0.69080    16    21    13    19
 C     3.17600  -0.70180   1.54810    17    20    12    18
 C     2.21630  -1.70680   1.56260    18    19    17    40
 C     2.02460  -2.43080   0.39560    19    16    18    31
 C     2.55320   0.38870   2.06030    20    17    45    14
 C     1.84780  -1.83750  -1.66030    21    24    16    22
 C     2.02530  -0.62520  -2.26970    22    21     8    23
 C     0.87830   0.11460  -2.58330    23    22     2    27
 C     0.62210  -2.30360  -1.35020    24    21    26    31
 C    -1.71050  -2.12300  -1.18330    25    36    26    30
 C    -0.55010  -1.76560  -1.85730    26    24    25    27
 C    -0.46800  -0.44960  -2.49490    27    28    23    26
 C    -1.65350   0.37060  -2.26990    28    37    29    27
 C    -1.37970   1.68960  -1.86260    29     1    28    35
 C    -1.66270  -2.53850   0.18000    30    42    32    25
 C     0.71710  -2.70880   0.01350    31    19    32    24
 C    -0.42240  -2.54660   0.80890    32    30    31    41
 C    -3.65950   0.51120  -0.81000    33    38    34    37
 C    -3.07990   1.59920  -0.19570    34    35    33    49
 C    -2.04180   2.28130  -0.76570    35    34     3    29
 C    -2.89840  -1.46360  -1.31230    36    39    25    37
 C    -2.83800  -0.16080  -1.73910    37    36    28    33
 C    -4.12260  -0.40100   0.08820    38    39    33    48
 C    -3.68390  -1.61390  -0.21190    39    38    42    36
 C     1.06560  -1.25750   2.22830    40    45    18    41
 C    -0.26400  -1.68930   1.97080    41    40    47    32
 C    -2.82080  -2.05020   0.72860    42    39    30    46
 C    -1.02280   0.54880   2.43540    43    44    50    47
 C     0.29710   0.96070   2.50170    44    45    43    11
 C     1.32680   0.08040   2.55960    45    44    20    40
 C    -2.64300  -1.05760   1.67860    46    42    47    48
 C    -1.38680  -0.82300   2.25570    47    46    43    41
 C    -3.48530  -0.02000   1.23830    48    49    38    46
 C    -2.94610   1.23260   1.15410    49    48    50    34
 C    -1.77630   1.54930   1.80110    50    49     5    43
