    50
C50-C1-101                                                                      
 C    -3.93600  -0.50210   0.08890     1    12     2    29
 C    -3.46870  -0.32650  -1.17070     2     5     1     3
 C    -2.55360  -1.28800  -1.50600     3     2    11     9
 C    -1.90430   1.31390  -1.84260     4     5    32     8
 C    -3.09720   0.95110  -1.28230     5     2     4    27
 C     0.78680   2.01980  -1.83340     6    46    33     7
 C     0.45570   0.75450  -2.42740     7     6     8    49
 C    -0.95250   0.38690  -2.39170     8     4     9     7
 C    -1.32760  -1.00080  -2.19220     9    10     3     8
 C    -0.26690  -1.87540  -1.97300    10    14     9    50
 C    -2.53000  -2.13950  -0.36250    11    13    12     3
 C    -3.24080  -1.51490   0.62890    12     1    11    17
 C    -1.37700  -2.76470  -0.07070    13    11    14    15
 C    -0.36720  -2.81070  -0.96450    14    26    13    10
 C    -0.71490  -2.60480   1.16260    15    20    13    16
 C    -1.19070  -1.55670   1.99860    16    17    15    23
 C    -2.47590  -1.04780   1.69750    17    12    18    16
 C    -2.78630   0.31980   1.75090    18    19    29    17
 C    -1.71570   1.16360   2.00610    19    18    24    30
 C     0.64240  -2.83390   0.95200    20    21    26    15
 C     1.61900  -2.11850   1.56980    21    20    25    22
 C     1.21750  -0.97170   2.27710    22    21    36    23
 C    -0.15390  -0.66630   2.46660    23    24    22    16
 C    -0.45480   0.71700   2.41420    24    19    38    23
 C     2.78250  -1.80870   0.91700    25    40    21    45
 C     0.81760  -2.98450  -0.41640    26    14    43    20
 C    -3.33970   1.61010  -0.09830    27    28    29     5
 C    -2.26360   2.42870   0.06510    28    27    32    30
 C    -3.73770   0.64910   0.78630    29     1    27    18
 C    -1.49830   2.31400   1.23460    30    31    19    28
 C    -0.15410   2.59410   1.27020    31    30    34    38
 C    -1.45630   2.38800  -1.07720    32    33     4    28
 C    -0.14590   2.69440  -1.04890    33    32     6    34
 C     0.51390   3.02820   0.14050    34    35    31    33
 C     1.81810   2.74840  -0.01010    35    34    46    39
 C     2.23570  -0.00970   2.06060    36    40    37    22
 C     1.90310   1.34930   1.87170    37    36    38    39
 C     0.53570   1.65850   2.06090    38    31    24    37
 C     2.62770   2.02760   0.84250    39    35    42    37
 C     3.23840  -0.59570   1.30070    40    25    41    36
 C     3.80420   0.03150   0.24450    41    42    40    44
 C     3.49640   1.31600   0.01870    42    41    47    39
 C     1.80210  -2.36190  -1.12120    43    26    45    50
 C     3.46320  -0.71460  -0.86640    44    45    41    48
 C     2.91050  -1.89470  -0.47160    45    44    43    25
 C     2.00180   2.23420  -1.26310    46    47     6    35
 C     2.99450   1.36710  -1.25680    47    46    48    42
 C     2.81240   0.11550  -1.78360    48    47    44    49
 C     1.53180  -0.23700  -2.33650    49    50    48     7
 C     1.09600  -1.54950  -2.05550    50    10    49    43
