    50
C50-C1-7                                                                        
 C     4.17490  -1.00110   0.43800     1     4    39     2
 C     3.47810  -0.46990   1.49090     2     1    42     8
 C     2.27280  -2.12140   0.78190     3     5     4     8
 C     3.29420  -1.87220  -0.09980     4     1     3    11
 C     1.04170  -2.46630   0.35760     5     3    28     9
 C     1.08610   0.74690   2.20630     6    48    41     7
 C     1.11650  -0.66160   2.29470     7     8     6    27
 C     2.33530  -1.18600   1.81670     8     2     3     7
 C     0.68240  -2.24900  -0.97830     9    14    10     5
 C     1.55840  -1.49090  -1.75600    10     9    11    17
 C     2.91590  -1.40560  -1.35810    11    12     4    10
 C     3.69500  -0.26980  -1.48070    12    13    39    11
 C     2.94250   0.82180  -1.71660    13    12    31    18
 C    -0.68080  -2.19430  -1.01450    14     9    24    15
 C    -1.42010  -1.31400  -1.81030    15    21    14    16
 C    -0.58520  -0.21190  -2.21220    16    17    15    20
 C     0.84770  -0.32220  -2.23800    17    18    16    10
 C     1.62380   0.83910  -2.07290    18    13    37    17
 C    -2.58310   1.11480  -1.59830    19    22    38    20
 C    -1.21380   1.06380  -1.90530    20    19    36    16
 C    -2.77570  -1.15720  -1.51190    21    22    15    25
 C    -3.44500   0.03190  -1.60380    22    21    19    46
 C    -2.47110  -2.07390   0.52490    23    24    25    29
 C    -1.20330  -2.43180   0.25600    24    23    28    14
 C    -3.41920  -1.76220  -0.42120    25    47    23    21
 C    -1.44020  -0.62390   2.14640    26    29    49    27
 C    -0.15990  -1.28410   2.08180    27    28     7    26
 C    -0.11770  -2.28510   1.07370    28    24     5    27
 C    -2.62920  -1.15180   1.56640    29    50    23    26
 C     2.00970   2.36260  -0.54270    30    31    32    37
 C     3.22550   1.77780  -0.78690    31    13    30    40
 C     1.50290   2.29810   0.73670    32    33    30    41
 C     0.15030   2.30210   0.95210    33    32    35    48
 C    -2.14750   2.24840   0.27260    34    38    35    44
 C    -0.82800   2.47460  -0.03350    35    34    33    36
 C    -0.33590   2.01410  -1.29790    36    37    20    35
 C     1.03160   1.93320  -1.45860    37    36    18    30
 C    -3.13860   1.93940  -0.62560    38    45    34    19
 C     4.51330   0.00170  -0.40220    39     1    40    12
 C     4.07860   1.19800   0.13090    40    39    31    42
 C     2.15780   1.44160   1.61770    41    42    32     6
 C     3.39640   0.89850   1.31630    42     2    41    40
 C    -3.65900   0.87240   1.07830    43    50    44    45
 C    -2.44810   1.43870   1.39100    44    43    49    34
 C    -4.21240   1.28430  -0.11020    45    46    38    43
 C    -4.54210   0.13900  -0.76370    46    45    47    22
 C    -4.39060  -0.93550   0.06180    47    46    25    50
 C    -0.12560   1.36880   1.95900    48    49     6    33
 C    -1.38200   0.81070   2.05560    49    48    44    26
 C    -3.77970  -0.47800   1.19580    50    43    47    29
