    50
C50-C1-251                                                                      
 C    -0.60210   0.85580   2.76510     1     4     2    32
 C    -1.12680   1.91650   2.10180     2     1     3     5
 C    -2.27050   1.69670   1.37260     3     2     8    31
 C     0.73720   0.90400   2.74780     4     1    40    13
 C    -0.02050   2.62750   1.61030     5     6     2    13
 C    -0.10060   3.13570   0.32710     6    10     5     7
 C    -1.22980   2.83560  -0.46210     7     8     6    23
 C    -2.31970   2.19650   0.06580     8     9     7     3
 C    -2.98260   1.27320  -0.65510     9     8    15    17
 C     0.99200   3.02780  -0.45980    10    45     6    14
 C     2.89180   0.48790   1.15810    11    39    48    12
 C     2.28730   1.79360   1.14120    12    14    13    11
 C     1.17420   1.97390   2.00060    13     4     5    12
 C     2.19210   2.40810  -0.12510    14    50    10    12
 C    -3.46850   0.27790   0.12800    15    16     9    31
 C    -3.40010  -0.84930  -0.57800    16    15    19    18
 C    -2.45660   0.73820  -1.83940    17    18     9    24
 C    -2.75540  -0.59390  -1.76090    18    27    17    16
 C    -2.80480  -1.91110  -0.02280    19    16    20    29
 C    -1.92990  -2.40100  -0.92960    20    22    19    27
 C     0.33020  -2.91530  -0.93140    21    37    22    28
 C    -0.87620  -2.94760  -0.30090    22    20    21    33
 C    -0.73600   2.39310  -1.72500    23    45     7    24
 C    -1.22990   1.19960  -2.34380    24    17    23    25
 C    -0.22810   0.18590  -2.74530    25    47    26    24
 C    -0.52990  -1.21990  -2.50760    26    27    28    25
 C    -1.80820  -1.54380  -2.02190    27    18    20    26
 C     0.54360  -2.03600  -2.03610    28    43    21    26
 C    -2.19100  -1.89960   1.21550    29    19    30    33
 C    -2.23260  -0.70790   1.98810    30    32    29    31
 C    -2.89750   0.41990   1.38730    31    15     3    30
 C    -1.04420  -0.44140   2.68520    32     1    30    36
 C    -0.98460  -2.63880   1.08270    33    35    29    22
 C     1.42610  -2.59680   1.16890    34    37    38    35
 C     0.19420  -2.36410   1.81250    35    34    36    33
 C     0.13880  -1.21880   2.63750    36    35    32    40
 C     1.46540  -2.89480  -0.18900    37    44    21    34
 C     2.48910  -1.70490   1.30330    38    39    41    34
 C     2.39130  -0.54690   1.99850    39    38    40    11
 C     1.25580  -0.34220   2.72840    40     4    39    36
 C     3.08950  -1.48400   0.10390    41    44    38    48
 C     2.16860  -0.28790  -2.15480    42    43    47    49
 C     1.86920  -1.60780  -1.90900    43    44    42    28
 C     2.42990  -2.20420  -0.82120    44    37    41    43
 C     0.59500   2.63050  -1.68610    45    46    10    23
 C     1.51240   1.79850  -2.13520    46    45    50    47
 C     1.14910   0.57250  -2.60820    47    46    42    25
 C     3.33380  -0.14690  -0.04680    48    41    49    11
 C     3.01560   0.45030  -1.26280    49    50    48    42
 C     2.55120   1.70850  -1.26860    50    49    46    14
