    50
C50-C1-58                                                                       
 C     1.75290   1.14630   2.15580     1     2    34     4
 C     1.77910  -0.19270   2.39580     2     1     3    17
 C     2.67920  -0.94580   1.67370     3     7     2    29
 C     0.51720   1.77420   1.99890     4     1     5    38
 C    -0.70510   1.12650   2.23030     5     6     4    16
 C    -1.81310   1.68070   1.60080     6    18     5    37
 C     2.06650  -2.08410   1.35520     7     3    10     8
 C     2.32930  -2.36140   0.02700     8     7     9    21
 C     1.23930  -2.84160  -0.67750     9    12     8    22
 C     0.80580  -2.15320   1.90890    10    11     7    17
 C    -0.20710  -2.74910   1.22370    11    10    12    13
 C     0.05590  -3.15500  -0.06230    12    26     9    11
 C    -1.50620  -2.24010   1.24420    13    11    15    46
 C    -2.96790  -0.36110   1.42910    14    18    15    49
 C    -1.83350  -1.03430   1.92420    15    14    13    16
 C    -0.70590  -0.30190   2.47090    16    17     5    15
 C     0.57700  -0.90830   2.51410    17    10     2    16
 C    -2.98240   1.02190   1.36720    18    50     6    14
 C     2.78430  -0.70820  -1.64450    19    30    20    21
 C     1.56660  -1.07610  -2.24090    20    22    19    32
 C     3.14210  -1.30150  -0.41850    21     8    19    29
 C     0.82010  -2.13600  -1.81400    22    20    23     9
 C    -0.57360  -2.09510  -1.83190    23    26    22    24
 C    -1.30320  -0.93710  -2.17930    24    25    23    31
 C    -2.56770  -0.79240  -1.58650    25    43    24    47
 C    -1.03070  -2.85220  -0.77370    26    12    46    23
 C     3.51740   0.95400   0.47450    27    28    29    34
 C     3.30740   1.48350  -0.78390    28    30    27    35
 C     3.46670  -0.42690   0.65890    29     3    27    21
 C     2.88960   0.65240  -1.76140    30    28    33    19
 C    -0.52540   0.24780  -2.46190    31    32    24    45
 C     0.87030   0.10740  -2.55990    32    33    31    20
 C     1.71520   1.11810  -2.24890    33    32    30    40
 C     2.63750   1.69160   1.26830    34    36     1    27
 C     2.33850   2.47390  -0.70160    35    36    40    28
 C     1.96450   2.62730   0.56890    36    35    34    38
 C    -1.67190   2.55190   0.48430    37    42    39     6
 C     0.66090   2.71820   0.94660    38    36    39     4
 C    -0.39890   2.83420   0.03170    39    37    38    41
 C     1.30620   2.24580  -1.60030    40    33    35    41
 C    -0.06260   2.41400  -1.32810    41    40    45    39
 C    -2.75130   2.23190  -0.29580    42    50    37    44
 C    -3.16580   0.41200  -1.37530    43    25    48    44
 C    -2.34300   1.52520  -1.42380    44    43    42    45
 C    -1.03770   1.51340  -1.92370    45    44    41    31
 C    -2.09760  -2.46750  -0.02940    46    26    47    13
 C    -3.02580  -1.59670  -0.49910    47    46    49    25
 C    -4.06880   0.40700  -0.34640    48    50    49    43
 C    -3.73790  -0.73360   0.29770    49    48    47    14
 C    -3.70900   1.49540   0.32160    50    48    42    18
