    50
C50-C1-114                                                                      
 C    -1.44120   2.50120  -0.66180     1     6     3    10
 C     0.82540   2.79410  -0.09630     2    37     3    12
 C    -0.13460   2.51230  -1.09060     3     1     2     5
 C     1.65530   1.29940  -2.18940     4     7    36     5
 C     0.27280   1.58940  -2.15260     5     4     8     3
 C    -2.41970   1.81080  -1.32890     6    20     1     9
 C     2.05990  -0.00280  -2.33520     7    48    34     4
 C    -0.69280   0.54810  -2.49410     8     9    50     5
 C    -2.03830   0.72340  -2.08440     9     6     8    46
 C    -1.82860   2.43580   0.70570    10    15    11     1
 C    -0.80090   2.15120   1.62840    11    12    10    18
 C     0.50770   2.49010   1.25490    12    13    11     2
 C     1.66300   1.88950   1.76140    13    14    31    12
 C     1.51070   0.74450   2.49330    14    13    21    19
 C    -3.04890   1.81520   0.69190    15    20    16    10
 C    -3.11520   0.65810   1.38790    16    15    17    44
 C    -2.10320   0.17610   2.16460    17    16    18    25
 C    -0.94810   0.94800   2.43510    18    19    17    11
 C     0.22810   0.24770   2.74940    19    14    18    27
 C    -3.47600   1.51930  -0.54950    20     6    47    15
 C     2.33960  -0.29940   2.16920    21    22    14    29
 C     1.58800  -1.40610   2.18280    22    21    24    27
 C     0.91400  -2.85400   0.51460    23    24    39    28
 C     1.95510  -2.20080   1.14010    24    22    23    32
 C    -2.00700  -1.20860   1.88470    25    26    17    41
 C    -0.77160  -1.87430   2.02840    26    27    25    28
 C     0.29010  -1.15390   2.57120    27    22    26    19
 C    -0.41440  -2.77590   0.99600    28    43    23    26
 C     3.26900  -0.31670   1.14680    29    21    30    32
 C     3.50140   0.87340   0.46060    30    33    29    31
 C     2.65060   1.92580   0.81060    31    37    13    30
 C     2.97740  -1.52800   0.44400    32    24    35    29
 C     3.48890   0.86220  -0.92370    33    34    30    36
 C     3.14990  -0.28140  -1.55940    34    33     7    35
 C     2.88980  -1.48490  -0.96270    35    34    40    32
 C     2.60220   1.83900  -1.34510    36    37     4    33
 C     2.13880   2.50030  -0.29380    37    36    31     2
 C    -0.47130  -2.69870  -1.18160    38    43    39    49
 C     0.84620  -2.77810  -0.87740    39    38    40    23
 C     1.74370  -2.01430  -1.57340    40    39    35    48
 C    -2.91680  -1.44810   0.81780    41    44    42    25
 C    -2.41320  -2.15940  -0.25370    42    43    41    45
 C    -1.24760  -2.81710  -0.08980    43    38    42    28
 C    -3.62020  -0.30940   0.55600    44    41    16    47
 C    -2.33260  -1.52490  -1.52280    45    46    49    42
 C    -2.94180  -0.29620  -1.67250    46    45    47     9
 C    -3.79310   0.22100  -0.70710    47    20    44    46
 C     1.17910  -1.02870  -2.42780    48     7    50    40
 C    -1.06290  -1.79420  -2.03320    49    38    45    50
 C    -0.20960  -0.81740  -2.58460    50    49    48     8
