    50
C50-C2-67                                                                       
 C     3.79090  -1.46440  -0.49430     1     5    31     2
 C     2.67160  -1.84310  -1.17610     2     1    10    33
 C    -1.48820  -1.70800  -1.75080     3    11     4    40
 C    -0.10890  -1.81950  -1.70670     4     3    34     9
 C     3.54580  -1.71760   0.79490     5     1    12     6
 C     2.34970  -2.34780   0.90010     6     5    25    10
 C    -1.78090  -2.47240   0.33290     7     8    26    11
 C    -0.43280  -2.51670   0.56570     8     7     9    24
 C     0.44770  -2.54420  -0.57670     9    10     8     4
 C     1.79550  -2.50990  -0.35930    10     9     2     6
 C    -2.36930  -2.36010  -0.91170    11    50     3     7
 C     3.35520  -0.54070   1.42080    12     5    13    15
 C     3.65480   0.47850   0.53410    13    14    12    31
 C     2.90600   1.61670   0.60860    14    13    27    17
 C     2.12430  -0.50530   2.07540    15    12    16    25
 C     1.32950   0.63870   2.22740    16    15    17    22
 C     1.82710   1.77130   1.51310    17    19    14    16
 C    -0.39110   2.63250   1.28290    18    19    41    23
 C     0.93060   2.68280   0.98580    19    18    28    17
 C    -2.11100  -0.84560   1.92660    20    26    47    21
 C    -0.72870  -0.77900   2.22570    21    20    24    22
 C    -0.09790   0.52020   2.40280    22    23    16    21
 C    -0.95500   1.60530   2.04440    23    18    48    22
 C     0.11900  -1.82330   1.71510    24    25    21     8
 C     1.49000  -1.71720   1.76990    25     6    24    15
 C    -2.67690  -1.82850   1.15060    26    49     7    20
 C     2.44540   2.21910  -0.53930    27    28    14    29
 C     1.31910   2.89260  -0.31790    28    27    37    19
 C     2.27840   1.43690  -1.66230    29    30    27    32
 C     2.94210   0.24960  -1.69140    30    29    31    33
 C     3.86410  -0.12760  -0.72020    31     1    30    13
 C     0.94060   1.61150  -2.04080    32    37    29    35
 C     2.11450  -0.85210  -1.94750    33     2    30    34
 C     0.73360  -0.77290  -2.23810    34    33     4    35
 C     0.09510   0.51870  -2.41120    35    32    39    34
 C    -0.92460   2.69700  -0.99930    36    37    41    38
 C     0.39220   2.66470  -1.29970    37    36    28    32
 C    -1.81640   1.76790  -1.51990    38    36    42    39
 C    -1.32480   0.63390  -2.23220    39    40    38    35
 C    -2.12400  -0.49900  -2.06110    40    44    39     3
 C    -1.32580   2.88320   0.30510    41    45    18    36
 C    -2.88290   1.61100  -0.60030    42    43    45    38
 C    -3.62020   0.46560  -0.51690    43    42    44    46
 C    -3.34500  -0.56940  -1.39070    44    50    43    40
 C    -2.44790   2.22800   0.54920    45    41    42    48
 C    -3.86400  -0.13410   0.73260    46    49    47    43
 C    -2.94650   0.26020   1.71130    47    48    46    20
 C    -2.30250   1.45280   1.68160    48    47    45    23
 C    -3.82110  -1.47620   0.49700    49    50    46    26
 C    -3.57950  -1.76170  -0.78570    50    49    11    44
