    50
C50-C1-47                                                                       
 C     2.87440   0.58000  -1.86790     1    37     7     5
 C     3.29990   0.97070   0.77320     2     6    36     4
 C     1.46010   2.52730   0.72790     3    16     4    50
 C     2.57930   1.97690   0.06460     4     3     2     5
 C     2.36130   1.73980  -1.33460     5     1    11     4
 C     2.69170   0.45810   1.91440     6    31    46     2
 C     1.79780  -0.01780  -2.46370     7    12    18     1
 C    -0.72310  -1.18520  -2.21850     8     9    17    15
 C    -1.93460  -1.59460  -1.64260     9    25     8    19
 C     0.09980   2.59500  -1.23510    10    11    16    13
 C     1.07670   1.92760  -1.89180    11    10    12     5
 C     0.69080   0.75360  -2.54560    12     7    11    15
 C    -1.24990   2.25510  -1.31670    13    10    42    14
 C    -1.69530   1.09700  -2.01220    14    24    13    15
 C    -0.62560   0.25270  -2.50680    15    12    14     8
 C     0.34380   2.93350   0.05260    16    45    10     3
 C     0.49370  -1.89410  -1.86920    17    18    21     8
 C     1.74900  -1.33100  -2.09890    18     7    28    17
 C    -1.96830  -2.42560  -0.51320    19    20    22     9
 C    -0.76190  -2.72540   0.01570    20    19    21    35
 C     0.43480  -2.65020  -0.65650    21    20    26    17
 C    -3.04710  -1.99930   0.21950    22    23    19    33
 C    -3.86630  -1.18150  -0.47230    23    41    22    25
 C    -2.90690   0.55080  -1.56610    24    25    14    44
 C    -3.05550  -0.81150  -1.50740    25    23    24     9
 C     1.50820  -2.59780   0.23700    26    27    21    29
 C     2.75190  -2.07840  -0.07800    27    28    30    26
 C     2.87350  -1.48120  -1.30550    28    27    37    18
 C     0.89290  -2.28150   1.46670    29    35    32    26
 C     3.42040  -1.26160   0.81180    30    31    27    36
 C     2.74440  -0.88800   1.91700    31     6    30    32
 C     1.49630  -1.32950   2.26150    32    31    29    40
 C    -2.64980  -1.32600   1.38390    33    38    34    22
 C    -1.37090  -1.41300   1.94370    34    33    35    39
 C    -0.47410  -2.32670   1.33360    35    29    20    34
 C     3.86080  -0.14150   0.11800    36    37    30     2
 C     3.61010  -0.32480  -1.19370    37     1    36    28
 C    -3.31860  -0.12030   1.28310    38    47    41    33
 C    -0.73520  -0.22480   2.48520    39    40    48    34
 C     0.68540  -0.24340   2.62610    40    32    46    39
 C    -4.12450  -0.05220   0.17300    41    23    44    38
 C    -1.85710   2.54910  -0.06640    42    43    45    13
 C    -2.91230   1.82620   0.37640    43    42    44    47
 C    -3.65150   1.04440  -0.46390    44    41    43    24
 C    -0.79120   2.79940   0.73340    45    16    42    49
 C     1.49290   0.89290   2.40860    46    50     6    40
 C    -2.61620   1.02600   1.52620    47    38    48    43
 C    -1.36770   1.04790   2.18940    48    49    47    39
 C    -0.48570   2.10170   1.87070    49    45    50    48
 C     0.89700   2.00390   1.91760    50    46    49     3
