    50
C50-C1-110                                                                      
 C     2.82560   1.69690  -1.07390     1    31     2     3
 C     2.95810   1.90940   0.26050     2    10     1     4
 C     1.65140   1.97300  -1.73280     3     6     1    39
 C     1.90060   2.42880   0.94630     4     2     5    13
 C     0.85380   2.97580   0.24450     5    16     4     6
 C     0.68190   2.72890  -1.13460     6     3     7     5
 C    -0.67010   2.51590  -1.36430     7    47     6     9
 C    -2.43600   0.94580  -1.70630     8    40     9    50
 C    -1.14790   1.39860  -2.08470     9     7     8    38
 C     3.39030   0.76280   0.82440    10     2    11    17
 C     2.54400   0.49350   1.89560    11    12    10    13
 C     2.14790  -0.80590   2.08960    12    11    18    23
 C     1.58600   1.52130   1.98680    13    11     4    14
 C     0.23230   1.27780   2.37260    14    15    13    22
 C    -0.76240   2.11030   1.79990    15    16    44    14
 C    -0.39040   2.90170   0.74090    16    47     5    15
 C     3.68650  -0.19870  -0.15220    17    19    10    31
 C     2.61520  -1.77410   1.23170    18    21    12    19
 C     3.30510  -1.50210   0.05650    19    17    18    25
 C     0.45620  -2.26860   1.68210    20    21    28    23
 C     1.58180  -2.61180   0.99950    21    26    18    20
 C    -0.17160  -0.08710   2.58520    22    23    24    14
 C     0.80030  -1.08380   2.38490    23    22    12    20
 C    -1.51410  -0.43720   2.29920    24    45    22    27
 C     2.49880  -2.13510  -0.88280    25    26    29    19
 C     1.51370  -2.87230  -0.31150    26    21    25    36
 C    -1.84410  -1.66300   1.65870    27    42    28    24
 C    -0.82330  -2.47410   1.15360    28    27    20    35
 C     1.88980  -1.46010  -1.91390    29    30    25    32
 C     2.24950  -0.15460  -2.12570    30    29    31    39
 C     3.20510   0.42130  -1.31440    31     1    30    17
 C     0.55020  -1.84500  -1.97020    32    29    33    36
 C    -0.47410  -0.95750  -2.35100    33    34    32    38
 C    -1.75710  -1.30820  -1.92870    34    40    33    37
 C    -0.91500  -2.80600  -0.27720    35    36    37    28
 C     0.31300  -2.80150  -0.94490    36    26    35    32
 C    -2.04410  -2.29500  -0.93400    37    43    35    34
 C    -0.14010   0.44580  -2.51620    38    39    33     9
 C     1.23720   0.78990  -2.37850    39    30     3    38
 C    -2.75860  -0.38490  -1.78690    40    41    34     8
 C    -3.68840  -0.76700  -0.90200    41    40    43    49
 C    -3.01520  -1.46600   0.97920    42    43    27    46
 C    -3.19200  -1.86300  -0.29620    43    41    42    37
 C    -2.07170   1.71700   1.53300    44    45    15    48
 C    -2.50490   0.46330   1.88200    45    46    44    24
 C    -3.43910  -0.17170   1.11340    46    45    42    49
 C    -1.34470   2.80880  -0.19380    47    16    48     7
 C    -2.46320   2.20130   0.24730    48    47    50    44
 C    -3.89540   0.30880  -0.09790    49    41    50    46
 C    -3.21330   1.40040  -0.58880    50    49    48     8
