    50
C50-C2-210                                                                      
 C     3.81990   0.79090   0.17530     1     2    31    15
 C     3.72900   0.33850  -1.10650     2     6     1     3
 C     2.73450   1.07660  -1.70930     3    40    11     2
 C    -1.37050   1.91620  -1.70880     4    41    12     5
 C     0.00360   1.79940  -1.87820     5     4    39    10
 C     3.41690  -0.95610  -1.34860     6     2    13     7
 C     2.30020  -1.00170  -2.13540     7    20     6    11
 C    -1.81200  -0.24740  -2.32820     8    12    21     9
 C    -0.46810  -0.55010  -2.46830     9     8    19    10
 C     0.48730   0.55900  -2.49250    10    11     9     5
 C     1.84000   0.27210  -2.38000    11     7     3    10
 C    -2.30930   1.00210  -2.10890    12     8     4    50
 C     3.11220  -1.76280  -0.28950    13    16     6    14
 C     3.03780  -1.33270   1.01660    14    13    15    23
 C     3.44100  -0.02060   1.26750    15    22    14     1
 C     1.93220  -2.38150  -0.55330    16    28    13    20
 C    -2.22880  -2.02600  -0.85640    17    21    46    18
 C    -0.86460  -2.38710  -0.87040    18    17    19    27
 C     0.01170  -1.79460  -1.87360    19    20    18     9
 C     1.38050  -1.92420  -1.72970    20     7    16    19
 C    -2.71710  -1.02840  -1.65960    21     8    17    48
 C     2.53940   0.71580   1.98630    22    30    15    26
 C     1.81020  -1.81120   1.54270    23    25    14    28
 C    -0.38940  -1.30900   2.37720    24    25    29    35
 C     0.97760  -1.04900   2.39330    25    24    26    23
 C     1.36630   0.28770   2.55070    26    22    25    37
 C    -0.23260  -2.66780   0.42280    27    28    29    18
 C     1.14210  -2.55100   0.52900    28    16    27    23
 C    -1.00660  -2.25050   1.52290    29    47    27    24
 C     2.29570   1.89120   1.38330    30    31    22    32
 C     2.99380   1.90200   0.24530    31    30    40     1
 C     0.99320   2.21710   1.51680    32    30    37    33
 C     0.24800   2.65040   0.39970    33    34    32    39
 C    -1.13240   2.53010   0.50390    34    41    33    38
 C    -1.35650  -0.28460   2.53270    35    45    36    24
 C    -0.96950   1.05050   2.38730    36    37    35    38
 C     0.39090   1.30000   2.40000    37    36    32    26
 C    -1.79830   1.78900   1.51490    38    36    34    43
 C     0.88910   2.41790  -0.89980    39    40     5    33
 C     2.25140   2.07080  -0.90340    40     3    31    39
 C    -1.94650   2.39490  -0.56450    41    34    44     4
 C    -3.41730   0.00470   1.23570    42    45    43    49
 C    -3.02440   1.32140   0.97130    43    44    42    38
 C    -3.13480   1.78960  -0.32590    44    41    50    43
 C    -2.51790  -0.72840   1.96600    45    47    35    42
 C    -3.02780  -1.91720   0.26410    46    47    17    49
 C    -2.31170  -1.92410   1.38870    47    46    45    29
 C    -3.78160  -0.33010  -1.10290    48    50    49    21
 C    -3.85720  -0.81600   0.16710    49    48    46    42
 C    -3.47240   0.96690  -1.36370    50    48    44    12
