    50
C50-C1-199                                                                      
 C    -1.82750   2.09600   1.46970     1     2    11     9
 C    -0.53480   2.43750   1.66350     2     1     3    18
 C     0.32280   1.59860   2.39100     3    30     2     7
 C     2.29590  -0.30710   1.99000     4    29    35     6
 C     0.67080  -2.01110   2.13040     5    14    10     6
 C     1.03420  -0.72850   2.53650     6     5     4     7
 C    -0.04620   0.25540   2.71370     7     3     8     6
 C    -1.42690  -0.10780   2.43290     8     9    15     7
 C    -2.31830   0.84630   1.88390     9    13     1     8
 C     1.35940  -2.71430   1.14860    10    34    50     5
 C    -2.41630   2.40130   0.26240    11    12     1    16
 C    -3.30330   1.44990   0.01430    12    20    11    13
 C    -3.29280   0.49350   0.95300    13    12    45     9
 C    -0.63970  -2.31240   1.89060    14    47    15     5
 C    -1.66750  -1.43320   1.97960    15    14     8    44
 C    -1.60980   2.59800  -0.85150    16    11    17    21
 C    -0.26720   2.96170  -0.69180    17    16    19    18
 C     0.23610   3.03830   0.63380    18    24     2    17
 C     0.65990   2.41870  -1.61780    19    27    17    22
 C    -3.07240   0.92340  -1.17780    20    12    40    21
 C    -2.02810   1.59910  -1.78610    21    20    26    16
 C     2.01350   2.14490  -1.27460    22    25    23    19
 C     2.48500   2.32620   0.00430    23    22    24    33
 C     1.53280   2.72880   0.91150    24    30    18    23
 C     2.34600   0.96790  -1.89180    25    28    22    31
 C    -1.07010   0.90090  -2.51860    26    21    27    42
 C     0.23700   1.39580  -2.50460    27    28    26    19
 C     1.30090   0.54530  -2.61250    28    25    37    27
 C     2.53320   1.01160   1.77850    29    30    33     4
 C     1.57680   1.90540   1.98350    30    29    24     3
 C     2.98380  -0.12520  -1.32960    31    25    32    38
 C     3.35710   0.01950   0.00680    32    33    31    35
 C     3.14410   1.24770   0.59110    33    29    32    23
 C     2.36680  -2.14970   0.43520    34    10    35    39
 C     2.92620  -0.97840   0.89870    35    34    32     4
 C    -0.03260  -1.36580  -2.52070    36    37    48    42
 C     1.23110  -0.80880  -2.58060    37    28    36    38
 C     2.28770  -1.26250  -1.77440    38    39    37    31
 C     2.01940  -2.32790  -0.92390    39    38    49    34
 C    -3.07110  -0.44730  -1.02450    40    20    41    45
 C    -2.14270  -1.19210  -1.73270    41    40    46    42
 C    -1.17200  -0.53180  -2.50820    42    41    36    26
 C    -1.84000  -2.68830   0.11800    43    47    46    44
 C    -2.54280  -1.75310   0.89940    44    45    43    15
 C    -3.26550  -0.73520   0.35000    45    44    13    40
 C    -1.56520  -2.34960  -1.21910    46    41    43    48
 C    -0.76720  -3.13720   0.82370    47    50    14    43
 C    -0.25850  -2.48790  -1.73110    48    36    49    46
 C     0.78860  -3.01220  -0.94960    49    50    48    39
 C     0.46680  -3.34140   0.33090    50    47    49    10
