    50
C50-C1-20                                                                       
 C     3.45380   0.20760   1.61460     1     2    36     4
 C     3.65810  -0.98390   1.01460     2     3     1    21
 C     2.65760  -1.86310   1.12180     3     2    11     9
 C     2.18010   0.51040   2.14130     4    38     1     8
 C    -1.90210   1.56520   1.62430     5    17    43     6
 C    -0.57690   1.31460   2.01710     6     5    40     7
 C    -0.24560  -0.06930   2.36520     7     8    19     6
 C     1.13700  -0.44060   2.32560     8     9     4     7
 C     1.46330  -1.71060   1.78320     9     3    15     8
 C     1.02840  -2.61120  -0.17430    10    11    25    15
 C     2.34640  -2.28510  -0.12440    11     3    10    20
 C    -2.95550  -1.90120   0.05320    12    16    13    44
 C    -1.70130  -2.38950   0.13170    13    12    24    14
 C    -0.87960  -2.13280   1.25100    14    15    13    19
 C     0.46000  -2.36380   1.09400    15    14     9    10
 C    -3.58070  -1.17620   1.00130    16    12    49    18
 C    -2.96750   0.72500   1.75960    17     5    50    18
 C    -2.65290  -0.60660   1.87000    18    17    16    19
 C    -1.31750  -1.01880   2.05930    19    18    14     7
 C     3.05720  -1.56060  -1.05220    20    11    22    21
 C     3.95280  -0.77540  -0.32690    21    28     2    20
 C     2.20140  -0.98850  -1.98970    22    20    26    23
 C     0.86420  -1.40740  -2.15280    23    25    35    22
 C    -1.11190  -2.28470  -1.14190    24    25    33    13
 C     0.24920  -2.33730  -1.29300    25    24    10    23
 C     2.20770   0.39930  -2.13680    26    29    22    27
 C     3.04080   1.16890  -1.31690    27    28    26    30
 C     3.98650   0.58990  -0.47260    28    36    21    27
 C     0.89230   0.75390  -2.41660    29    32    35    26
 C     2.37900   2.16280  -0.58200    30    31    37    27
 C     1.06620   2.45480  -0.81670    31    30    32    39
 C     0.32270   1.86190  -1.82440    32    48    29    31
 C    -1.98770  -1.42950  -1.83020    33    44    24    34
 C    -1.36350  -0.27840  -2.35490    34    33    35    47
 C     0.03980  -0.33350  -2.54480    35    29    23    34
 C     3.80030   1.18360   0.74350    36    37     1    28
 C     2.81870   2.07950   0.71500    37    36    30    38
 C     1.81360   1.76950   1.62440    38    40    37     4
 C     0.13040   2.65810   0.18690    39    41    31    40
 C     0.47650   2.09620   1.45350    40    38     6    39
 C    -1.14460   2.55420  -0.30220    41    43    39    48
 C    -3.36170   1.69060  -0.04390    42    50    43    46
 C    -2.22320   2.26440   0.45010    43    41    42     5
 C    -3.16770  -1.33570  -1.15780    44    45    12    33
 C    -3.92890  -0.24550  -0.92390    45    44    49    46
 C    -3.21620   0.92490  -1.21000    46    45    42    47
 C    -1.98360   0.95770  -1.92430    47    48    46    34
 C    -1.02670   1.93010  -1.55920    48    32    41    47
 C    -4.38600  -0.22640   0.38480    49    50    45    16
 C    -4.00540   0.93530   0.89010    50    49    42    17
