    50
C50-C2-203                                                                      
 C    -1.03930  -2.81470  -0.90760     1    32     2     9
 C     0.26890  -2.62890  -1.35430     2     1     6     3
 C     0.45310  -1.55040  -2.27580     3     4    25     2
 C     1.62170  -0.79160  -2.25860     4     5    12     3
 C     2.66150  -1.11720  -1.41330     5     7     4    13
 C     1.31920  -2.83860  -0.44850     6     7     2    50
 C     2.54440  -2.20220  -0.58380     7    15     5     6
 C    -2.54460  -2.22010   0.59460     8    33    46     9
 C    -1.31910  -2.87130   0.48970     9     8    49     1
 C     1.93850   1.52470  -1.82270    10    16    12    11
 C     2.85080   1.20300  -0.81200    11    13    10    21
 C     1.25160   0.52640  -2.47920    12    10     4    24
 C     3.25340  -0.09180  -0.64250    13    11    14     5
 C     3.38750  -0.62420   0.61590    14    15    13    19
 C     3.06010  -1.92040   0.61270    15    45     7    14
 C     1.21720   2.59610  -1.44830    16    10    17    22
 C     1.61970   2.94040  -0.18980    17    18    21    16
 C     0.51980   3.37770   0.41900    18    17    27    44
 C     2.66510   0.01820   1.62520    19    14    40    20
 C     2.19740   1.35090   1.53360    20    19    21    43
 C     2.49380   2.00870   0.29170    21    17    11    20
 C    -0.14580   2.76440  -1.61060    22    27    16    23
 C    -0.92310   1.70720  -2.15160    23    22    24    30
 C    -0.14500   0.60280  -2.63860    24    25    12    23
 C    -0.61660  -0.70140  -2.60020    25    26    24     3
 C    -1.87660  -0.99480  -2.18000    26    25    32    31
 C    -0.54050   3.39470  -0.45270    27    28    18    22
 C    -1.62200   2.94870   0.17250    28    27    29    39
 C    -2.49200   2.00250  -0.28790    29    28    36    30
 C    -2.19920   1.35310  -1.54230    30    31    29    23
 C    -2.68610   0.02930  -1.62970    31    34    30    26
 C    -2.11770  -2.14600  -1.47110    32    33    26     1
 C    -3.06350  -1.88800  -0.58960    33    32     8    34
 C    -3.41620  -0.59990  -0.61100    34    33    37    31
 C    -1.92940   1.51250   1.80000    35    39    38    36
 C    -2.86700   1.19350   0.81220    36    37    35    29
 C    -3.27530  -0.10160   0.65990    37    36    34    46
 C    -1.24650   0.50220   2.45010    38    35    47    42
 C    -1.20940   2.58640   1.42500    39    35    28    44
 C     1.88680  -1.02390   2.17930    40    41    45    19
 C     0.61620  -0.71790   2.57780    41    40    42    48
 C     0.15060   0.59320   2.61430    42    41    38    43
 C     0.92410   1.70190   2.13720    43    44    42    20
 C     0.15170   2.75070   1.58710    44    18    39    43
 C     2.13650  -2.21210   1.51650    45    15    40    50
 C    -2.66690  -1.12710   1.42320    46     8    47    37
 C    -1.60500  -0.81930   2.24930    47    46    38    48
 C    -0.44800  -1.59470   2.27470    48    47    41    49
 C    -0.25480  -2.70370   1.38610    49    50     9    48
 C     1.05750  -2.88440   0.95810    50    45    49     6
