    50
C50-C1-259                                                                      
 C     0.24830   3.11110  -0.87450     1     3     5     2
 C    -0.14050   3.29120   0.43070     2    29     1    10
 C     1.43010   2.51870  -1.16040     3     1     8     6
 C    -0.89320   1.54060  -2.27490     4     5    32     7
 C    -0.88540   2.68410  -1.51120     5    27     1     4
 C     1.47370   1.43430  -2.06630     6    17     3     7
 C     0.29670   0.82460  -2.56950     7     6     4    16
 C     2.35400   2.23040  -0.13490     8    12     3     9
 C     1.85330   2.15430   1.21390     9    10    11     8
 C     0.56020   2.64910   1.42550    10     2     9    20
 C     2.20430   0.95340   1.87320    11    14     9    18
 C     3.15230   1.21310  -0.60490    12    13    17     8
 C     3.60400   0.16910   0.09320    13    12    14    45
 C     3.09030   0.05130   1.33500    14    25    13    11
 C    -1.02340  -1.20610  -2.38440    15    46    33    16
 C     0.26870  -0.62590  -2.60340    16    15     7    49
 C     2.54100   0.69070  -1.71160    17     6    12    50
 C     1.19560   0.17510   2.50590    18    19    11    26
 C    -0.11910   0.63430   2.64590    19    18    23    20
 C    -0.42770   1.92700   2.13780    20    10    21    19
 C    -1.69510   2.22390   1.56860    21    29    22    20
 C    -2.60540   1.19410   1.42310    22    24    21    30
 C    -1.13560  -0.33400   2.55830    23    24    19    44
 C    -2.33660  -0.00580   1.98160    24    36    22    23
 C     2.61470  -1.19240   1.50150    25    14    26    40
 C     1.46440  -1.19810   2.24080    26    25    43    18
 C    -1.96540   2.73600  -0.69720    27     5    29    28
 C    -2.73410   1.62730  -0.91690    28    27    30    32
 C    -1.48060   3.07270   0.52140    29    27     2    21
 C    -3.19790   0.87390   0.16350    30    28    31    22
 C    -3.30610  -0.51890   0.07280    31    34    36    30
 C    -2.09610   0.89930  -1.95070    32    33     4    28
 C    -2.16290  -0.46790  -2.00750    33    32    15    34
 C    -2.88480  -1.21370  -1.05140    34    35    31    33
 C    -2.21200  -2.39650  -0.89980    35    46    34    39
 C    -2.79740  -1.02880   1.26110    36    24    37    31
 C    -1.96730  -2.11130   1.40670    37    36    39    44
 C    -0.44080  -3.27950   0.08440    38    47    39    42
 C    -1.73890  -2.90570   0.30690    39    38    37    35
 C     2.75860  -1.89750   0.32180    40    41    45    25
 C     1.72130  -2.70210  -0.02910    41    40    42    48
 C     0.64460  -2.96680   0.85800    42    38    41    43
 C     0.44250  -2.12760   1.99910    43    26    44    42
 C    -0.88030  -1.68900   2.21640    44    43    37    23
 C     3.29850  -0.99070  -0.56690    45    13    40    50
 C    -1.15850  -2.40780  -1.75710    46    47    35    15
 C    -0.10690  -2.99780  -1.20560    47    46    48    38
 C     1.15310  -2.54710  -1.32770    48    47    41    49
 C     1.44090  -1.38540  -2.11920    49    50    48    16
 C     2.57820  -0.68010  -1.71820    50    17    45    49
