    50
C50-C2-156                                                                      
 C    -2.00580   2.05550  -1.55150     1     2     6     3
 C    -3.05650   1.99020  -0.74120     2     1    10    34
 C    -0.95360   2.70680  -0.95480     3     1     8    15
 C    -0.24990  -0.89360  -2.52570     4    48     5    37
 C    -0.47940   0.49690  -2.52300     5     6     4     7
 C    -1.78110   0.85310  -2.16980     6     1     5    39
 C     0.63170   1.38180  -2.22630     7    50     5     8
 C     0.36300   2.50700  -1.32890     8     3     9     7
 C     1.34570   2.83730  -0.37350     9    47     8    16
 C    -2.64180   2.38450   0.47090    10     2    11    15
 C    -2.86720   1.33540   1.27510    11    10    14    33
 C    -1.02380  -1.37450   2.26660    12    21    13    20
 C    -2.06910  -0.56740   2.00480    13    12    14    32
 C    -1.91900   0.81560   2.09730    14    11    13    18
 C    -1.35040   2.85830   0.41090    15    10    17     3
 C     0.96380   2.73600   1.00020    16    28    17     9
 C    -0.36010   2.53130   1.36370    17    16    15    18
 C    -0.62700   1.39320   2.25060    18    14    19    17
 C     0.48600   0.51140   2.54440    19    29    20    18
 C     0.25350  -0.87370   2.52920    20    12    19    26
 C    -0.88090  -2.53100   1.60410    21    12    22    30
 C     0.42540  -2.82940   1.49930    22    23    21    26
 C     0.60420  -3.39960   0.30320    23    22    45    35
 C     2.71830  -0.02370   1.61540    24    41    25    29
 C     2.34250  -1.35840   1.34930    25    26    24    44
 C     1.18350  -1.80890   1.99760    26    22    25    20
 C     3.05680   1.99960   0.75200    27    28    47    41
 C     2.02620   2.09600   1.59160    28    27    29    16
 C     1.78070   0.89250   2.19020    29    28    19    24
 C    -1.60010  -2.84290   0.45990    30    35    21    31
 C    -2.53900  -1.88490   0.00300    31    30    32    38
 C    -2.93870  -0.86790   0.92580    32    33    13    31
 C    -3.44410   0.32520   0.53270    33    32    34    11
 C    -3.50390   0.71600  -0.76460    34     2    33    39
 C    -0.62600  -3.40790  -0.32640    35    36    30    23
 C    -0.41040  -2.84510  -1.51070    36    35    40    37
 C    -1.18660  -1.82440  -1.99900    37    36    38     4
 C    -2.36440  -1.37250  -1.36760    38    39    37    31
 C    -2.75860  -0.05030  -1.64020    39    34    38     6
 C     0.90190  -2.56070  -1.62550    40    48    36    45
 C     3.48410   0.71820   0.73300    41    42    27    24
 C     3.44120   0.30460  -0.55100    42    41    43    46
 C     2.93750  -0.88870  -0.94600    43    42    49    44
 C     2.54630  -1.89850  -0.01210    44    45    43    25
 C     1.61170  -2.85500  -0.46990    45    23    40    44
 C     2.86480   1.32760  -1.27580    46    47    50    42
 C     2.63580   2.37280  -0.46280    47    27    46     9
 C     1.03330  -1.39780  -2.29260    48    40    49     4
 C     2.07380  -0.58260  -2.03270    49    48    50    43
 C     1.92300   0.79510  -2.09540    50    46    49     7
