    50
C50-D5h-1                                                                       
 C    -4.78680  -0.92080   0.66150     1    25     6     2
 C    -3.56780  -1.43970   1.05520     2     4     1    39
 C    -1.44070  -0.60910   1.86140     3     4    34     8
 C    -2.82820  -0.56580   1.82100     4     2     7     3
 C     0.68980   0.60340   1.83330     5     8    12    36
 C    -4.77330   0.36970   1.13350     6     1    13     7
 C    -3.57550   0.59590   1.77110     7     6    10     4
 C    -0.70110   0.60480   1.83730     8     5     9     3
 C    -1.44260   1.61320   1.16450     9    10    14     8
 C    -2.83230   1.57420   1.14040    10     7    15     9
 C     2.81930   1.54880   1.13680    11    37    24    12
 C     1.43130   1.60670   1.15930    12    11    23     5
 C    -4.76220   1.16710   0.01340    13    15     6    16
 C    -0.70190   1.94180  -0.00020    14    23     9    17
 C    -3.56700   1.84010  -0.00180    15    13    18    10
 C    -4.77160   0.35990  -1.10370    16    19    25    13
 C    -1.44150   1.59500  -1.16230    17    18    22    14
 C    -2.82940   1.55360  -1.13130    18    15    19    17
 C    -3.57140   0.55590  -1.73850    19    16    27    18
 C     2.81920   1.53980  -1.09810    20    24    33    21
 C     1.43180   1.58060  -1.15040    21    20    32    23
 C    -0.70150   0.58950  -1.83540    22    32    17    26
 C     0.68830   1.93810   0.00090    23    14    12    21
 C     3.58290   1.82920   0.01710    24    50    20    11
 C    -4.79520  -0.95630  -0.70180    25     1    16    28
 C    -1.44560  -0.62110  -1.86550    26    27    31    22
 C    -2.83860  -0.60900  -1.81840    27    19    28    26
 C    -3.59380  -1.51470  -1.08300    28    25    39    27
 C     2.82530  -0.59140  -1.79440    29    45    33    30
 C     1.43600  -0.61590  -1.85470    30    29    44    32
 C    -0.70060  -1.58220  -1.13300    31    44    26    38
 C     0.68970   0.58740  -1.83150    32    22    21    30
 C     3.58570   0.56380  -1.71680    33    49    29    20
 C    -0.70410  -1.56970   1.12230    34    42     3    38
 C     2.81740  -0.58960   1.79710    35    43    37    36
 C     1.42830  -0.60940   1.85500    36    35    42     5
 C     3.57530   0.56550   1.73220    37    11    46    35
 C    -1.45280  -2.00590  -0.00420    38    39    31    34
 C    -2.83840  -1.94610  -0.00980    39    28     2    38
 C     2.82810  -1.92790  -0.00480    40    43    45    41
 C     1.43820  -1.98790   0.00320    41    40    42    44
 C     0.68630  -1.56950   1.12550    42    34    41    36
 C     3.58510  -1.47080   1.05820    43    47    35    40
 C     0.69240  -1.57840  -1.13060    44    31    30    41
 C     3.59610  -1.47680  -1.06920    45    29    48    40
 C     4.78270   0.35210   1.10510    46    47    37    50
 C     4.79700  -0.94590   0.66340    47    46    48    43
 C     4.81520  -0.93140  -0.70820    48    47    49    45
 C     4.81880   0.38360  -1.11310    49    50    48    33
 C     4.80130   1.17810  -0.00430    50    49    24    46
