    50
C50-C1-134                                                                      
 C    -3.73920   1.17780  -0.15810     1     2    29    12
 C    -3.74720   0.50450   1.02640     2     6     1     3
 C    -2.67890   1.00190   1.73730     3    40     2     8
 C     1.47260   1.44000   1.89000     4    42     5    18
 C     0.09410   1.36960   2.02780     5     4     7    39
 C    -3.61390  -0.83950   1.07540     6     2    10     9
 C    -0.49780   0.09350   2.37490     7     8     5    20
 C    -1.89610  -0.01430   2.24810     8     9     3     7
 C    -2.54210  -1.16550   1.86870     9    22     6     8
 C    -3.35260  -1.53080  -0.07580    10    13     6    11
 C    -3.10410  -0.87240  -1.28050    11    12    10    27
 C    -3.33560   0.49060  -1.32260    12    24    11     1
 C    -2.32570  -2.37560   0.13030    13    10    15    22
 C    -0.21340  -2.72970  -0.78240    14    15    33    17
 C    -1.50510  -2.41650  -0.94320    15    14    13    27
 C     1.64350  -2.59800   0.35440    16    17    45    23
 C     0.33440  -2.78740   0.52020    17    16    21    14
 C     2.35380   0.34280   1.95720    18     4    48    19
 C     1.76540  -0.94690   1.95340    19    18    23    20
 C     0.33630  -1.09660   2.17350    20    19     7    21
 C    -0.39200  -2.22000   1.57090    21    22    17    20
 C    -1.76730  -2.17300   1.39680    22     9    21    13
 C     2.49150  -1.85530   1.11750    23    16    50    19
 C    -2.30820   1.20610  -1.85560    24    28    12    25
 C    -1.12940   0.72210  -2.37450    25    24    26    37
 C    -0.84100  -0.64340  -2.42120    26    25    27    34
 C    -1.89670  -1.40680  -1.81440    27    15    11    26
 C    -2.04100   2.28690  -1.11310    28    24    29    30
 C    -2.81780   2.20610  -0.02230    29    28    40     1
 C    -0.72180   2.53200  -1.12270    30    28    31    37
 C    -0.01400   2.76690   0.06050    31    32    30    39
 C     1.34040   2.66550  -0.01400    32    31    42    38
 C     0.79640  -2.24130  -1.60140    33    45    14    34
 C     0.53920  -1.03530  -2.32760    34    33    26    35
 C     1.63750  -0.06250  -2.22200    35    47    36    34
 C     1.23440   1.31100  -1.98480    36    37    38    35
 C    -0.11490   1.62630  -2.03400    37    36    25    30
 C     2.03540   2.08380  -1.10810    38    44    36    32
 C    -0.71810   2.29930   1.24640    39    40    31     5
 C    -2.09510   2.08060   1.15130    40     3    29    39
 C     3.28960   1.86310   0.69700    41    42    44    48
 C     2.11470   2.34080   1.06750    42    41    32     4
 C     3.66090   0.40950  -0.84620    43    44    47    49
 C     3.24650   1.66200  -0.63070    44    43    41    38
 C     1.95950  -2.40420  -0.94280    45    46    33    16
 C     3.02400  -1.64200  -0.96370    46    45    47    50
 C     2.88850  -0.44480  -1.61280    47    46    43    35
 C     3.55470   0.67320   1.28290    48    41    49    18
 C     4.03760  -0.20560   0.35400    49    50    48    43
 C     3.55560  -1.44540   0.29600    50    49    46    23
