    50
C50-C1-148                                                                      
 C     0.32940  -2.58540  -1.33320     1     2     4    37
 C    -0.95090  -2.28900  -1.56190     2     1     3     5
 C    -1.91380  -2.64900  -0.68750     3     2    11    21
 C     1.34770  -1.76560  -1.77730     4    39     1     7
 C    -1.31460  -1.06210  -2.11390     5     2    14     6
 C    -0.31960  -0.06830  -2.37680     6     5    19     7
 C     1.07300  -0.43910  -2.21940     7     4     9     6
 C     1.62880   1.87370  -1.63510     8     9    50    18
 C     2.04820   0.54980  -1.80530     9     8    10     7
 C     3.13330   0.13950  -0.96000    10    38    48     9
 C    -2.99480  -1.84130  -0.79990    11     3    12    14
 C    -3.44090  -1.55140   0.44720    12    13    11    20
 C    -3.69600  -0.26100   0.74450    13    12    33    16
 C    -2.61190  -0.80470  -1.65440    14    15    11     5
 C    -2.93460   0.49710  -1.35270    15    14    17    16
 C    -3.60890   0.76320  -0.16180    16    34    13    15
 C    -2.01190   1.51520  -1.57910    17    15    44    19
 C     0.27230   2.23930  -1.80460    18    47    19     8
 C    -0.71220   1.29110  -2.13360    19    18    17     6
 C    -2.41630  -1.98480   1.26140    20    21    26    12
 C    -1.50920  -2.79030   0.63730    21    20    22     3
 C    -0.15970  -2.82260   0.96520    22    21    37    23
 C     0.34680  -1.79450   1.88740    23    24    30    22
 C     1.73810  -1.53380   1.82890    24    25    32    23
 C     2.66080  -2.25750   1.07310    25    36    40    24
 C    -1.94300  -0.92550   2.00460    26    33    20    30
 C    -0.49290   2.72670   1.05620    27    42    28    45
 C    -1.02030   1.67650   1.81710    28    35    27    29
 C    -0.07620   0.63980   2.25290    29    31    30    28
 C    -0.57030  -0.73670   2.26370    30    26    23    29
 C     1.33310   0.85450   2.01980    31    32    43    29
 C     2.22760  -0.21210   1.90590    32    31    41    24
 C    -2.79050   0.10580   1.69840    33    35    13    26
 C    -2.95870   1.83030   0.36060    34    16    44    35
 C    -2.33880   1.36510   1.52030    35    33    28    34
 C     2.06520  -2.85740   0.01700    36    37    25    39
 C     0.75390  -3.12090  -0.08550    37    36     1    22
 C     3.32880  -1.17210  -0.64170    38    39    40    10
 C     2.43510  -2.06650  -1.03720    39    38     4    36
 C     3.58640  -1.34410   0.67240    40    41    38    25
 C     3.43280  -0.12250   1.17780    41    40    48    32
 C     0.83150   2.90190   0.88390    42    27    46    43
 C     1.75020   2.00960   1.31990    43    42    31    49
 C    -2.16770   2.47700  -0.54470    44    45    34    17
 C    -1.06350   3.16470  -0.17570    45    44    47    27
 C     1.18160   3.45710  -0.29360    46    47    50    42
 C     0.04200   3.33820  -0.96730    47    46    45    18
 C     3.44790   0.87410   0.21540    48    49    41    10
 C     2.79530   2.03950   0.35940    49    48    50    43
 C     2.22500   2.73120  -0.68390    50    46    49     8
