    50
C50-Cs-92                                                                       
 C     2.65700   2.46220  -0.46450     1     2    32     3
 C     2.18560   2.50070   0.77840     2     1    34    13
 C     1.59310   2.48470  -1.27420     3     1     6    16
 C    -0.88330   1.41120  -2.02150     4     5    15     8
 C    -2.10620   0.71530  -2.04740     5    10     4    21
 C     0.46720   2.83840  -0.59970     6     3     8    13
 C    -1.79390   2.41740  -0.04480     7     9     8    14
 C    -0.78860   2.46900  -1.01600     8     6     7     4
 C    -2.96580   1.79120  -0.25280     9     7    10    46
 C    -3.25790   1.06500  -1.35410    10    27     9     5
 C     0.42200   1.11170   2.35070    11    35    47    12
 C    -0.08430   2.22640   1.64090    12    14    13    11
 C     0.83800   2.80630   0.77270    13     2    12     6
 C    -1.42220   2.15450   1.29420    14    12    50     7
 C     0.34260   0.72920  -2.35990    15    16     4    18
 C     1.57480   1.34840  -2.03850    16     3    17    15
 C     2.76910   0.68430  -1.70760    17    20    32    16
 C     0.33700  -0.71950  -2.34900    18    19    22    15
 C     1.56410  -1.34290  -2.01420    19    23    20    18
 C     2.76330  -0.67310  -1.69660    20    17    28    19
 C    -2.10620  -0.69410  -2.03640    21    24    22     5
 C    -0.88700  -1.39300  -2.00610    22    21    18    25
 C     1.60260  -2.48110  -1.24830    23    29    26    19
 C    -3.24830  -1.06500  -1.33340    24    42    27    21
 C    -0.78670  -2.45970  -1.00910    25    26    43    22
 C     0.46490  -2.83230  -0.59000    26    23    25    38
 C    -3.98560   0.00700  -0.93950    27    10    24    44
 C     3.40210  -1.36840  -0.66350    28    29    30    20
 C     2.67060  -2.46320  -0.45530    29    37    23    28
 C     3.52510  -0.68530   0.54620    30    31    28    33
 C     3.52340   0.69670   0.53480    31    30    32    34
 C     3.40540   1.37700  -0.67340    32     1    31    17
 C     2.66400  -1.39610   1.42780    33    37    36    30
 C     2.66170   1.38860   1.42810    34     2    35    31
 C     1.75150   0.68060   2.19690    35    36    34    11
 C     1.74640  -0.69940   2.20010    36    35    33    41
 C     2.18800  -2.52020   0.78230    37    29    33    38
 C     0.83860  -2.81650   0.78220    38    37    40    26
 C    -1.41690  -2.15930   1.28960    39    40    48    43
 C    -0.07870  -2.22270   1.64600    40    39    38    41
 C     0.41750  -1.10980   2.35890    41    36    47    40
 C    -2.98760  -1.80920  -0.24100    42    43    24    45
 C    -1.81070  -2.42520  -0.04900    43    42    25    39
 C    -4.05580  -0.01090   0.43980    44    45    46    27
 C    -3.41340  -1.13510   0.86110    45    42    44    48
 C    -3.39800   1.11860   0.84810    46     9    44    50
 C    -0.41820  -0.00090   2.55540    47    41    49    11
 C    -2.34380  -1.18990   1.73780    48    45    39    49
 C    -1.79370   0.00270   2.27810    49    47    50    48
 C    -2.34510   1.18830   1.73930    50    46    14    49
