    50
C50-C1-120                                                                      
 C     0.43630  -2.59330   1.10810     1     6     2    30
 C     1.15440  -1.66230   1.86340     2     1     3     7
 C     2.47040  -1.41350   1.40460     3    29     4     2
 C     3.04800  -0.13150   1.46240     4     5    11     3
 C     2.23480   0.88510   1.90070     5     4     8    12
 C    -0.89690  -2.63350   1.13060     6     1    39    14
 C     0.32170  -0.61850   2.45260     7     8     2    15
 C     0.95790   0.63680   2.43610     8    16     5     7
 C     3.52990   1.08470  -0.42640     9    18    10    11
 C     2.67920   2.09930  -0.09190    10     9    12    21
 C     3.89780   0.02110   0.36550    11    24     9     4
 C     2.14140   2.09770   1.17940    12    13    10     5
 C     0.88950   2.54390   1.38220    13    16    12    22
 C    -1.74420  -1.78690   1.77930    14     6    46    15
 C    -1.15490  -0.63350   2.36030    15    14    49     7
 C     0.19770   1.73170   2.19250    16    13    50     8
 C     1.86650   1.13010  -1.94440    17    18    21    27
 C     3.00920   0.51610  -1.55240    18    25    17     9
 C    -1.92690   2.21710  -1.24720    19    40    20    45
 C    -0.63060   2.22950  -1.66120    20    19    23    26
 C     1.68620   2.25120  -1.10290    21    23    17    10
 C     0.00950   3.01330   0.45240    22    13    43    23
 C     0.39770   2.75380  -0.88540    23    20    21    22
 C     3.78930  -1.12710  -0.33880    24    29    11    25
 C     3.14520  -0.81240  -1.50310    25    18    24    32
 C    -0.47390   1.00420  -2.37130    26    27    35    20
 C     0.76030   0.37510  -2.42780    27    26    17    31
 C     2.01680  -2.44880  -0.62890    28    30    29    32
 C     2.98420  -2.01870   0.24500    29    24    28     3
 C     0.81180  -2.86500  -0.22920    30    28    33     1
 C     0.79650  -1.07210  -2.26170    31    32    34    27
 C     2.02430  -1.57130  -1.72740    32    25    28    31
 C    -0.36500  -2.75650  -0.95480    33    39    30    34
 C    -0.46330  -1.73630  -1.96790    34    33    31    36
 C    -1.69990   0.32410  -2.30280    35    40    26    36
 C    -1.75520  -1.06380  -2.03960    36    35    37    34
 C    -2.85570  -1.45410  -1.17790    37    38    42    36
 C    -2.58420  -2.35180  -0.18920    38    39    37    46
 C    -1.40340  -2.90800  -0.10180    39    38    33     6
 C    -2.62090   1.17680  -1.72780    40    41    19    35
 C    -3.54540   0.80800  -0.83330    41    42    40    44
 C    -3.66160  -0.48740  -0.56270    42    41    47    37
 C    -1.28690   2.69240   0.91300    43    45    22    50
 C    -3.27070   1.51570   0.31370    44    45    41    48
 C    -2.32160   2.46430   0.05710    45    43    44    19
 C    -2.88970  -1.74980   1.01620    46    47    14    38
 C    -3.54550  -0.62160   0.79980    47    46    42    48
 C    -3.11610   0.57130   1.34170    48    47    44    49
 C    -1.91800   0.61190   2.12830    49    50    48    15
 C    -1.12820   1.76520   1.97670    50    16    49    43
