    50
C50-C1-171                                                                      
 C    -1.14730   2.64430  -1.05670     1    32     2     4
 C    -0.12210   2.99310  -0.24650     2     1     3    19
 C     1.15270   2.76130  -0.65400     3     9     2     7
 C    -1.00620   1.83270  -2.15350     4     1     6    34
 C     0.41370   0.04980  -2.81960     5     8     6    13
 C     0.30640   1.40780  -2.49380     6     5     7     4
 C     1.40350   1.92640  -1.77430     7     6     3    15
 C    -0.70820  -0.73840  -2.76090     8    50    35     5
 C     2.10080   2.47350   0.24210     9     3    10    17
 C     3.06360   1.67090  -0.25180    10    12     9    15
 C     3.61320  -0.44570   0.49510    11    12    42    16
 C     3.49440   0.86900   0.73150    12    10    11    22
 C     1.51190  -0.75030  -2.40430    13    14     5    47
 C     2.63620  -0.21070  -1.72630    14    13    15    16
 C     2.57600   1.18520  -1.46570    15    10     7    14
 C     3.21690  -1.03850  -0.70700    16    49    11    14
 C     1.73980   2.05770   1.52530    17    22     9    18
 C     0.39460   2.02080   1.91470    18    17    19    23
 C    -0.54660   2.67430   1.06670    19    20     2    18
 C    -1.88630   2.31330   1.00020    20    21    32    19
 C    -2.41160   1.31810   1.75860    21    20    25    24
 C     2.61680   1.04800   1.77780    22    17    27    12
 C    -0.08170   0.79540   2.55410    23    24    18    28
 C    -1.47190   0.53660   2.48250    24    29    23    21
 C    -3.35010   0.43420   1.23380    25    26    21    30
 C    -3.09960  -0.77510   1.70370    26    25    37    29
 C     2.17650  -0.15960   2.23830    27    22    42    28
 C     0.81830  -0.37000   2.58560    28    27    23    45
 C    -1.96780  -0.74660   2.41160    29    26    46    24
 C    -3.47910   0.31160  -0.15660    30    31    25    33
 C    -2.90760   1.28920  -0.95990    31    32    30    34
 C    -2.22270   2.29900  -0.33970    32     1    31    20
 C    -3.23520  -1.05600  -0.44690    33    37    36    30
 C    -2.14040   0.97600  -2.08880    34    35    31     4
 C    -1.95560  -0.35550  -2.37510    35     8    34    36
 C    -2.43860  -1.37300  -1.53410    36    33    35    41
 C    -2.97670  -1.69260   0.75280    37    26    33    38
 C    -1.78410  -2.37950   0.94790    38    37    40    46
 C     0.39580  -2.89210   0.07870    39    40    44    48
 C    -0.99430  -2.78740  -0.13300    40    38    39    41
 C    -1.38810  -2.31210  -1.41010    41    50    36    40
 C     2.89570  -1.06780   1.49460    42    43    27    11
 C     2.27150  -2.11060   0.98370    43    42    49    44
 C     0.99020  -2.43580   1.28880    44    43    45    39
 C     0.22920  -1.66580   2.20220    45    46    44    28
 C    -1.14090  -1.77420   2.07350    46    29    45    38
 C     0.94380  -2.01300  -2.05330    47    50    48    13
 C     1.38310  -2.63280  -0.92050    48    49    47    39
 C     2.50190  -2.17130  -0.34340    49    48    43    16
 C    -0.38640  -1.93100  -2.26430    50     8    47    41
