    50
C50-C1-213                                                                      
 C     1.85070   1.41590  -1.95700     1     2     4     9
 C     2.94000   0.74550  -1.49270     2     1    12    27
 C     0.51230   2.88130  -0.65260     3     4     7    36
 C     1.71810   2.46790  -1.06720     4     3    28     1
 C    -1.85730   2.53540   0.74210     5    48    35     6
 C    -1.85060   2.38500  -0.65670     6     7    19     5
 C    -0.62750   2.47440  -1.30050     7     3     6     8
 C    -0.53410   1.42620  -2.23490     8    14     7     9
 C     0.71800   0.77680  -2.47140     9     1     8    10
 C     0.71540  -0.67310  -2.45070    10    16     9    11
 C     1.84920  -1.36270  -1.83140    11    12    13    10
 C     2.98270  -0.61390  -1.39310    12     2    22    11
 C     1.53000  -2.46710  -0.97830    13    20    18    11
 C    -1.76600   0.78970  -2.19010    14    15     8    19
 C    -1.80320  -0.58190  -2.36330    15    47    14    16
 C    -0.57180  -1.26740  -2.36690    16    17    15    10
 C    -0.79170  -2.38200  -1.54800    17    18    25    16
 C     0.20840  -2.82930  -0.76680    18    17    13    23
 C    -2.64840   1.40110  -1.26060    19     6    50    14
 C     2.16160  -2.58220   0.23610    20    21    24    13
 C     3.11860  -1.74660   0.62540    21    20    22    29
 C     3.65860  -0.83440  -0.18180    22    21    26    12
 C    -0.03240  -2.87110   0.63560    23    24    42    18
 C     1.17630  -2.61440   1.15840    24    23    20    37
 C    -2.04990  -2.27690  -1.05790    25    17    47    41
 C     3.73770   0.36940   0.47800    26    27    22    30
 C     3.46250   1.36410  -0.36480    27    26    28     2
 C     2.60020   2.33220  -0.04930    28    27     4    33
 C     2.60580  -1.08380   1.70220    29    30    21    37
 C     2.89520   0.24340   1.61180    30    29    26    32
 C     0.58090   0.64190   2.42870    31    34    32    38
 C     1.85570   1.15990   1.92620    32    30    33    31
 C     1.79260   2.32340   1.08070    33    28    36    32
 C    -0.55890   1.45200   2.22660    34    39    35    31
 C    -0.60170   2.56790   1.37390    35    36    34     5
 C     0.55560   2.86800   0.74480    36    35    33     3
 C     1.37990  -1.59200   2.05440    37    29    24    38
 C     0.29890  -0.80940   2.45930    38    37    45    31
 C    -1.81880   0.95230   2.20110    39    34    48    44
 C    -3.31350  -1.34110   0.41730    40    43    41    46
 C    -2.31920  -2.28290   0.30570    41    40    25    42
 C    -1.21660  -2.37360   1.19080    42    23    41    45
 C    -3.24050  -0.42900   1.39230    43    40    49    44
 C    -2.11770  -0.37810   2.19510    44    39    43    45
 C    -1.05700  -1.29470   2.17920    45    44    38    42
 C    -3.58520  -0.71210  -0.77900    46    47    40    50
 C    -2.74680  -1.28170  -1.65990    47    46    25    15
 C    -2.66450   1.66050   1.40150    48    49     5    39
 C    -3.53720   0.80150   0.84030    49    48    50    43
 C    -3.59700   0.64830  -0.52870    50    49    46    19
