    50
C50-C1-223                                                                      
 C    -0.63880   2.87060   0.65840     1    30     2     4
 C     0.71060   2.87900   0.59100     2     1     3    17
 C     1.30640   2.73080  -0.62140     3     9     2     7
 C    -1.51290   2.62660  -0.37770     4     1    32     6
 C    -1.52830   1.15090  -2.21310     5     8     6    12
 C    -0.89800   2.23520  -1.60070     6     5     7     4
 C     0.49820   2.28230  -1.69080     7     6    14     3
 C    -2.72470   0.65540  -1.73910     8    50     5    33
 C     2.49020   2.08720  -0.65680     9     3    10    15
 C     2.48330   1.26310  -1.73100    10    11     9    14
 C     3.20210   0.18180  -1.46050    11    10    49    19
 C    -0.77020   0.02830  -2.65940    12    45    13     5
 C     0.64080   0.02320  -2.65580    13    12    14    48
 C     1.24740   1.25820  -2.30830    14    10     7    13
 C     3.13840   1.44170   0.38370    15     9    19    16
 C     2.35460   1.32720   1.57780    16    17    18    15
 C     1.17230   2.09200   1.68130    17    16    24     2
 C     2.25770   0.01660   2.10990    18    21    16    22
 C     3.72910   0.31260  -0.18660    19    20    11    15
 C     3.62150  -0.90630   0.35570    20    19    21    44
 C     2.91710  -1.03220   1.50450    21    26    20    18
 C     1.00580  -0.48830   2.56540    22    23    27    18
 C    -0.13840   0.30260   2.72400    23    22    24    25
 C    -0.00290   1.64500   2.32700    24    30    23    17
 C    -1.41870  -0.27850   2.51100    25    36    28    23
 C     2.04480  -2.04910   1.41610    26    21    27    41
 C     0.88570  -1.82020   2.09060    27    26    35    22
 C    -2.54430   0.42100   1.99710    28    31    29    25
 C    -2.29780   1.69480   1.51470    29    30    28    32
 C    -1.08870   2.24090   1.74090    30     1    29    24
 C    -3.30040  -0.43150   1.24790    31    37    28    34
 C    -2.64880   1.97960   0.16310    32    33     4    29
 C    -3.34830   1.03000  -0.56400    33     8    32    34
 C    -3.77170  -0.16540  -0.00470    34    31    40    33
 C    -0.34970  -2.30160   1.65970    35    36    27    43
 C    -1.50460  -1.59580   1.98850    36    37    35    25
 C    -2.62930  -1.61240   1.20490    37    31    36    39
 C    -1.43380  -2.59470  -0.51250    38    39    43    46
 C    -2.66320  -2.11310  -0.07350    39    37    40    38
 C    -3.39940  -1.21380  -0.81810    40    50    34    39
 C     2.06290  -2.50980   0.11790    41    42    44    26
 C     0.84320  -2.76360  -0.43590    42    41    43    47
 C    -0.33450  -2.81630   0.31320    43    38    42    35
 C     3.00470  -1.75500  -0.53570    44    41    20    49
 C    -1.55010  -1.09400  -2.35930    45    50    46    12
 C    -0.87890  -2.12130  -1.72480    46    45    47    38
 C     0.50220  -2.17200  -1.67570    47    46    42    48
 C     1.36330  -1.18320  -2.25420    48    49    47    13
 C     2.65860  -1.06200  -1.68500    49    11    44    48
 C    -2.76690  -0.69380  -1.89560    50    40     8    45
