    50
C50-C2-74                                                                       
 C     4.15860  -0.61870   0.50870     1    27     6     4
 C     2.32760   0.65240  -1.93660     2    30     3     7
 C     3.52360   0.45430  -1.25410     3     4    25     2
 C     3.97480  -0.76610  -0.85160     4     9     3     1
 C     2.64830  -2.13950   0.17560     5    13     6     9
 C     3.25580  -1.42220   1.14340     6     5     1    12
 C     1.41680  -0.39420  -2.30600     7     8     2    20
 C     1.85750  -1.63060  -1.76090     8     9    23     7
 C     3.04380  -1.72800  -1.05910     9     4     5     8
 C     1.74390   1.48720   1.79810    10    11    18    28
 C     2.77870   0.57520   1.81120    11    10    27    12
 C     2.37260  -0.75840   1.97170    12     6    11    16
 C     1.34790  -2.46860   0.20410    13     5    15    23
 C    -0.83400  -2.27470   1.06650    14    15    39    24
 C     0.51270  -2.14270   1.28480    15    14    13    16
 C     1.00250  -1.10210   2.15740    16    12    15    17
 C    -0.01000  -0.12280   2.48070    17    18    40    16
 C     0.44390   1.20270   2.21130    18    34    10    17
 C    -0.44830   1.17820  -2.19040    19    31    48    20
 C     0.00640  -0.15040  -2.45100    20    19     7    21
 C    -1.01140  -1.13320  -2.14220    21    50    22    20
 C    -0.51030  -2.19370  -1.30260    22    23    24    21
 C     0.83570  -2.31620  -1.09920    23    22     8    13
 C    -1.36150  -2.50210  -0.22840    24    47    22    14
 C     3.54910   1.36310  -0.21420    25    26    27     3
 C     2.47520   2.19540  -0.31360    26    25    28    30
 C     3.84150   0.64470   0.90640    27     1    25    11
 C     1.63500   2.43490   0.76330    28    29    26    10
 C     0.30390   2.73540   0.63710    29    28    34    32
 C     1.75680   1.82190  -1.45530    30    31     2    26
 C     0.42380   2.07080  -1.57570    31    30    32    19
 C    -0.32000   2.73020  -0.60900    32    43    31    29
 C    -1.77010   1.84290   1.49510    33    34    37    42
 C    -0.43640   2.09890   1.61810    34    33    29    18
 C    -3.93990  -0.72690   0.80870    35    38    36    45
 C    -3.50010   0.47140   1.27230    36    35    41    37
 C    -2.32910   0.67460   1.99050    37    33    36    40
 C    -2.99820  -1.68210   1.01610    38    35    47    39
 C    -1.83090  -1.58470   1.74320    39    38    14    40
 C    -1.41930  -0.37460   2.33700    40    39    37    17
 C    -3.53790   1.35480   0.21920    41    42    36    44
 C    -2.47160   2.19570   0.32940    42    41    43    33
 C    -1.64300   2.41870  -0.76020    43    32    42    48
 C    -3.83360   0.63490  -0.91770    44    45    41    49
 C    -4.16780  -0.63530  -0.54450    45    46    44    35
 C    -3.29320  -1.46750  -1.17490    46    47    45    50
 C    -2.66270  -2.17540  -0.21190    47    24    46    38
 C    -1.74960   1.48230  -1.80150    48    49    19    43
 C    -2.77250   0.56490  -1.81680    49    48    44    50
 C    -2.38790  -0.77240  -1.96870    50    46    49    21
