    50
C50-C1-136                                                                      
 C     0.85270  -2.87820  -0.34920     1     2     4    31
 C     2.08650  -2.45160  -0.08420     2     1     3     9
 C     2.81310  -1.78680  -1.03830     3     7     2    17
 C    -0.13610  -3.01090   0.60150     4    33     1     5
 C    -0.00520  -2.12590   1.72650     5     6     8     4
 C    -1.23670  -1.50850   2.04640     6    38    27     5
 C     3.74530  -1.05610  -0.43630     7     3    12    10
 C     1.23540  -1.44300   1.92080     8     5     9    13
 C     2.38190  -1.83010   1.14180     9    10     2     8
 C     3.47940  -1.03530   0.89570    10    15     7     9
 C     3.72380   1.02250   0.14600    11    19    12    15
 C     3.71460   0.20200  -0.93100    12     7    11    18
 C     1.20220  -0.01950   2.29360    13    14    28     8
 C     2.34300   0.73470   1.90960    14    24    15    13
 C     3.44800   0.24490   1.27080    15    10    14    11
 C     0.71810  -1.25390  -2.14290    16    17    31    22
 C     2.06740  -0.99040  -1.90440    17     3    16    18
 C     2.60280   0.29860  -1.78880    18    17    12    21
 C     2.85470   2.03540   0.17180    19    11    24    20
 C     1.94360   2.37680  -0.79800    20    19    46    21
 C     1.68790   1.37750  -1.80730    21    18    34    20
 C    -0.22830  -0.18120  -2.37170    22    16    34    35
 C     0.89230   2.48560   1.14600    23    24    26    46
 C     2.08770   1.92380   1.29140    24    23    19    14
 C    -1.52830   3.09420   0.00090    25    47    45    29
 C    -0.24910   1.97840   1.76490    26    23    29    28
 C    -1.27560  -0.12380   2.29530    27     6    28    48
 C    -0.09500   0.64210   2.33510    28    27    13    26
 C    -1.48070   2.37590   1.20700    29    50    25    26
 C    -1.10570  -2.55830  -1.27650    30    31    36    33
 C     0.19840  -2.39300  -1.49970    31    30    16     1
 C    -2.50310  -2.60360   0.37070    32    33    38    37
 C    -1.34510  -3.09990  -0.04950    33    32    30     4
 C     0.30830   1.17000  -2.17390    34    42    21    22
 C    -1.65960  -0.43960  -2.11070    35    36    44    22
 C    -2.08170  -1.67750  -1.59540    36    30    37    35
 C    -3.05790  -1.78790  -0.60380    37    40    32    36
 C    -2.45670  -1.82220   1.45570    38    32    41     6
 C    -3.50530   0.54950  -0.69810    39    40    49    44
 C    -3.62180  -0.65970  -0.06240    40    39    37    41
 C    -3.16690  -0.70330   1.25690    41    38    48    40
 C    -0.63360   2.12390  -1.73820    42    43    45    34
 C    -1.97000   1.87610  -1.61060    43    47    44    42
 C    -2.48090   0.63180  -1.70620    44    43    35    39
 C    -0.36270   3.06500  -0.72850    45    46    25    42
 C     0.85040   2.97370  -0.18300    46    45    20    23
 C    -2.57460   2.58640  -0.64540    47    25    49    43
 C    -2.51470   0.35590   1.81400    48    50    41    27
 C    -3.33460   1.73380   0.03880    49    47    50    39
 C    -2.62980   1.58460   1.23670    50    48    29    49
