    50
C50-C2-116                                                                      
 C     2.87380  -1.72400  -0.07850     1     2     3    35
 C     1.94770  -2.67670  -0.21950     2     1    29     8
 C     3.01900  -0.80180  -1.09260     3     5     1     6
 C     3.71410   0.85810   0.50030     4    50     5    34
 C     3.49590   0.42700  -0.78520     5     3    17     4
 C     1.91500  -0.64190  -1.97760     6    18     7     3
 C     0.85840  -1.56340  -2.04470     7     6     8    12
 C     1.00700  -2.72470  -1.23740     8     9     2     7
 C    -0.07660  -3.28010  -0.65180     9    10     8    21
 C    -1.29580  -2.85650  -0.89100    10     9    23    13
 C    -0.69330   0.39470  -2.34620    11    14    19    12
 C    -0.47960  -1.04140  -2.26820    12    13     7    11
 C    -1.56590  -1.78800  -1.69870    13    10    16    12
 C    -1.97640   0.88430  -1.97480    14    46    15    11
 C    -3.01130   0.10260  -1.42290    15    16    24    14
 C    -2.71720  -1.20480  -1.18190    16    15    13    22
 C     2.75180   1.35470  -1.44150    17    47     5    18
 C     1.72080   0.73900  -2.10820    18    17     6    19
 C     0.43160   1.29460  -2.17410    19    18    11    49
 C    -1.04230  -2.79240   1.26180    20    21    23    28
 C     0.07790  -3.34310   0.70150    21    29     9    20
 C    -2.92760  -1.78180   0.10820    22    23    26    16
 C    -2.01050  -2.73840   0.25480    23    22    10    20
 C    -3.70890   0.85650  -0.48690    24    39    25    15
 C    -3.54270   0.38920   0.79490    25    26    36    24
 C    -3.06840  -0.84190   1.11030    26    25    22    27
 C    -1.92820  -0.68460   1.96120    27    37    28    26
 C    -0.86110  -1.60610   2.03930    28    27    20    31
 C     1.30100  -2.91280   0.95300    29    21     2    32
 C     0.69500   0.35100   2.32760    30    33    38    31
 C     0.48670  -1.08950   2.27160    31    32    30    28
 C     1.59790  -1.84400   1.74920    32    29    35    31
 C     1.97700   0.85200   1.96390    33    42    34    30
 C     3.04390   0.08650   1.45530    34    35     4    33
 C     2.74450  -1.22250   1.24370    35    34    32     1
 C    -2.75030   1.30800   1.42380    36    44    25    37
 C    -1.71940   0.69190   2.07940    37    36    27    38
 C    -0.42850   1.24070   2.13760    38    37    30    40
 C    -3.14930   2.08320  -0.51780    39    44    46    24
 C    -0.23430   2.43600   1.31620    40    41    43    38
 C     1.02910   2.68730   0.85520    41    42    40    48
 C     2.13880   2.07900   1.35640    42    50    41    33
 C    -1.28650   2.82620   0.47200    43    44    40    45
 C    -2.56150   2.39450   0.64460    44    39    36    43
 C    -1.01770   2.75210  -0.92660    45    46    49    43
 C    -2.13250   2.12840  -1.40030    46    39    45    14
 C     2.60910   2.44880  -0.65450    47    50    17    48
 C     1.31470   2.88310  -0.53160    48    47    49    41
 C     0.25630   2.51390  -1.37810    49    45    48    19
 C     3.17630   2.09990   0.51230    50    42    47     4
