    50
C50-C2v-43                                                                      
 C    -1.13090  -1.37580   2.06340     1     2     4    28
 C    -2.37810  -0.84150   1.95930     2     1     3     5
 C    -3.32170  -1.33330   1.08700     3    11     2    27
 C    -0.00170  -0.67420   2.45430     4     1    42     7
 C    -2.46810   0.55440   1.96810     5    12     2     6
 C    -1.28200   1.31320   2.07540     6    16     5     7
 C     0.00390   0.75300   2.45680     7     4     6     9
 C     1.22090   2.32300   1.09980     8    15     9    49
 C     1.29350   1.31380   2.08470     9    10     8     7
 C     2.47690   0.55300   1.96830    10    50    41     9
 C    -4.12130  -0.32300   0.65570    11    17     3    12
 C    -3.51450   0.81790   1.08630    12    11    14     5
 C    -2.08770   2.31780  -0.00840    13    14    16    22
 C    -3.23350   1.59900  -0.01910    14    13    12    18
 C     0.00450   2.66990   0.64870    15    16    45     8
 C    -1.20390   2.31540   1.09090    16    15     6    13
 C    -4.13990  -0.29570  -0.68160    17    11    18    20
 C    -3.56170   0.84780  -1.13870    18    17    14    24
 C    -2.37380  -0.81130  -1.93020    19    21    20    24
 C    -3.31690  -1.31180  -1.06040    20    17    19    27
 C    -1.12860  -1.35040  -2.02770    21    19    38    25
 C    -1.22040   2.35630  -1.12380    22    45    23    13
 C    -1.29570   1.34450  -2.10280    23    22    24    37
 C    -2.48850   0.58760  -1.99610    24    18    19    23
 C    -0.69910  -2.33010  -1.12110    25    29    21    26
 C    -1.51240  -2.54470   0.01100    26    27    25    28
 C    -2.82150  -2.05980   0.01090    27     3    26    20
 C    -0.69250  -2.34260   1.14630    28    32     1    26
 C     0.68910  -2.32440  -1.12510    29    25    34    31
 C     2.80270  -2.02840   0.00020    30    40    31    35
 C     1.49340  -2.51870   0.01350    31    30    29    32
 C     0.69360  -2.33010   1.15810    32    28    42    31
 C     2.36540  -0.82410  -1.93370    33    34    35    39
 C     1.11770  -1.35000  -2.04010    34    33    38    29
 C     3.32760  -1.30730  -1.08090    35    44    33    30
 C     1.28590   1.34120  -2.07300    36    46    39    37
 C    -0.00410   0.77150  -2.44650    37    38    23    36
 C    -0.00500  -0.64900  -2.42230    38    34    21    37
 C     2.47600   0.57500  -1.95940    39    33    47    36
 C     3.30630  -1.31320   1.09090    40    43    41    30
 C     2.37530  -0.84410   1.98200    41    42    40    10
 C     1.13390  -1.38050   2.09140    42    41     4    32
 C     4.11870  -0.32510   0.64000    43    44    40    50
 C     4.14950  -0.30320  -0.69610    44    43    35    47
 C     0.00320   2.71280  -0.69010    45    15    46    22
 C     1.22910   2.37180  -1.11040    46    45    49    36
 C     3.56160   0.85270  -1.11250    47    44    48    39
 C     3.24800   1.63290  -0.01030    48    49    50    47
 C     2.10420   2.35030  -0.00560    49    48    46     8
 C     3.52010   0.82030   1.07690    50    43    48    10
