    50
C50-C1-55                                                                       
 C    -3.39510   1.33090  -0.02340     1     2    36     4
 C    -3.67640   0.07040  -0.51180     2     1     3     9
 C    -3.48020  -1.04030   0.30790     3     6    30     2
 C    -2.50250   2.12790  -0.73460     4    32     7     1
 C    -2.57430  -1.57900  -1.58300     5     6     9    13
 C    -2.86900  -2.06170  -0.35410     6     5     3    12
 C    -1.77420   1.69040  -1.81430     7     8     4    25
 C    -2.02250   0.43540  -2.29210     8     7     9    23
 C    -3.01640  -0.30290  -1.68600     9     5     8     2
 C    -0.63190  -1.64560   2.18160    10    17    11    31
 C    -1.86740  -1.89100   1.59110    11    10    30    12
 C    -1.87000  -2.61840   0.38750    12     6    15    11
 C    -1.30690  -1.66330  -2.09880    13     5    14    23
 C    -0.33940  -2.40430  -1.46100    14    13    18    15
 C    -0.62420  -2.90780  -0.17240    15    16    12    14
 C     0.57570  -2.81800   0.49940    16    15    46    17
 C     0.57190  -2.16820   1.73520    17    38    10    16
 C     1.00070  -2.08780  -1.53780    18    14    46    20
 C     2.73330  -0.45270  -1.75260    19    24    21    20
 C     1.46900  -0.89710  -2.17230    20    19    18    22
 C     3.50990  -1.06260  -0.75970    21    47    45    19
 C     0.42420   0.03570  -2.53810    22    23    20    26
 C    -0.92720  -0.39370  -2.56700    23     8    13    22
 C     2.96060   0.90050  -1.57390    24    48    27    19
 C    -0.45920   2.13080  -1.67720    25     7    26    44
 C     0.65600   1.41010  -2.12370    26    27    25    22
 C     1.88020   1.73260  -1.55230    27    24    26    50
 C    -2.55680   0.36690   2.01780    28    36    30    29
 C    -1.25690   0.63280   2.50070    29    31    34    28
 C    -2.86250  -0.90220   1.54790    30    28     3    11
 C    -0.32140  -0.36070   2.63070    31    29    35    10
 C    -1.63060   2.78040   0.05740    32    33     4    44
 C    -1.85320   2.34020   1.30050    33    32    36    34
 C    -0.79680   1.87310   2.01930    34    33    29    42
 C     1.03480  -0.12810   2.47650    35    31    38    41
 C    -2.89220   1.46840   1.26280    36    33    28     1
 C     2.77910  -1.27900   1.29910    37    38    39    45
 C     1.62620  -1.32230   2.02960    38    37    17    35
 C     3.48680  -0.12150   1.12690    39    47    37    40
 C     2.80440   1.07640   1.39560    40    49    39    41
 C     1.55640   1.12680   2.03920    41    40    35    42
 C     0.55970   2.08980   1.64510    42    34    41    43
 C     0.78510   2.71690   0.33620    43    50    44    42
 C    -0.37460   2.84420  -0.44600    44    32    43    25
 C     2.80180  -1.91510   0.04480    45    21    46    37
 C     1.63600  -2.51730  -0.35410    46    45    16    18
 C     4.13320  -0.06100  -0.06540    47    48    39    21
 C     3.83530   1.13090  -0.55840    48    47    49    24
 C     3.08290   1.87440   0.28510    49    48    50    40
 C     1.97610   2.41870  -0.30430    50    49    43    27
