    50
C50-C1-154                                                                      
 C     3.13480  -1.07680  -0.52320     1     2     6    14
 C     3.13700   0.25080  -0.86240     2     1    13     3
 C     2.26880   0.67500  -1.90400     3    33     2     4
 C     1.23350  -0.17830  -2.41320     4     5     3     7
 C     1.39160  -1.52540  -2.08440     5     4     6    50
 C     2.43410  -1.98680  -1.27780     6    16     1     5
 C    -0.12020   0.34780  -2.53490     7     9     8     4
 C    -1.27270  -0.50100  -2.28330     8    10     7    49
 C    -0.27410   1.72890  -2.18660     9    32    37     7
 C    -2.48520   0.11590  -1.80420    10    46    36     8
 C     2.84060   0.86510   1.39190    11    17    13    12
 C     2.64820  -0.48490   1.70810    12    14    11    18
 C     3.15650   1.27780   0.09830    13    22    11     2
 C     2.93500  -1.48600   0.81420    14    15    12     1
 C     2.15130  -2.60470   0.73060    15    16    14    26
 C     1.98770  -3.00150  -0.54370    16    45     6    15
 C     1.80080   1.56680   1.95870    17    19    20    11
 C     1.40300  -0.56680   2.39430    18    19    27    12
 C     0.96030   0.70170   2.53510    19    17    18    30
 C     1.07910   2.61100   1.45070    20    17    21    23
 C     1.49070   3.08950   0.22290    21    20    35    22
 C     2.48600   2.35610  -0.42400    22    33    13    21
 C    -0.28000   2.33640   1.74380    23    24    20    30
 C    -1.33200   2.60830   0.84690    24    25    23    34
 C    -2.47200   1.80640   0.92860    25    24    39    31
 C     0.89910  -2.60970   1.34500    26    15    42    27
 C     0.44310  -1.58440   2.20870    27    18    26    28
 C    -0.96080  -1.22040   2.22430    28    44    27    29
 C    -1.36960   0.18790   2.38070    29    30    31    28
 C    -0.32830   1.11030   2.46470    30    19    29    23
 C    -2.55280   0.63870   1.74760    31    41    29    25
 C     0.77940   2.46610  -1.75280    32    33    35     9
 C     1.99410   1.97020  -1.62420    33    32     3    22
 C    -0.87970   3.00450  -0.43600    34    35    24    37
 C     0.44480   3.21130  -0.67070    35    32    34    21
 C    -2.47800   1.45330  -1.35950    36    37    39    10
 C    -1.38080   2.20710  -1.49620    37    36     9    34
 C    -3.83560   0.31260  -0.03410    38    39    41    46
 C    -3.23240   1.48040  -0.20240    39    38    36    25
 C    -2.96950  -1.44970   0.86740    40    41    44    47
 C    -3.43280  -0.22020   1.13270    41    40    38    31
 C     0.02780  -3.11160   0.36170    42    43    45    26
 C    -1.26520  -2.74960   0.35180    43    42    44    48
 C    -1.81690  -1.96540   1.36420    44    40    43    28
 C     0.71630  -3.22720  -0.82050    45    16    42    50
 C    -3.42570  -0.53700  -1.02170    46    47    38    10
 C    -3.01590  -1.69330  -0.48060    47    46    48    40
 C    -1.91140  -2.37200  -0.84990    48    47    43    49
 C    -1.03140  -1.87420  -1.86550    49    50    48     8
 C     0.27700  -2.35010  -1.81340    50    49    45     5
