    50
C50-C2-265                                                                      
 C    -0.71640  -2.93340  -0.39820     1    27     2     4
 C    -1.62150  -2.35150  -1.23900     2     1     3    11
 C    -1.09520  -1.66340  -2.30510     3     2    12     7
 C     0.65150  -2.90420  -0.51350     4     1    38     6
 C     2.41370  -1.48830  -1.33710     5     8     6    47
 C     1.22790  -2.22610  -1.62340     6     7     4     5
 C     0.30410  -1.62070  -2.50750     7    14     3     6
 C     2.95580  -1.53510  -0.06320     8    50    37     5
 C    -3.17540  -0.56930  -0.74100     9    15    11    10
 C    -2.60180   0.18140  -1.78430    10    12     9    21
 C    -2.63120  -1.82040  -0.42150    11     9     2    25
 C    -1.61160  -0.38430  -2.56460    12    13    10     3
 C    -0.54870   0.36940  -2.93750    13    14    12    19
 C     0.57940  -0.35430  -2.95930    14    13    48     7
 C    -3.42460   0.31710   0.25860    15    16     9    23
 C    -2.97360   1.54920  -0.07790    16    15    18    21
 C    -1.14180   2.75140   0.76770    17    18    22    32
 C    -2.30950   2.08630   0.99950    18    17    16    26
 C    -0.30240   1.65200  -2.50840    19    13    20    43
 C    -1.25510   2.25610  -1.64540    20    21    22    19
 C    -2.43840   1.52950  -1.35480    21    16    20    10
 C    -0.64820   2.92070  -0.54720    22    45    17    20
 C    -3.03570   0.04200   1.53470    23    26    24    15
 C    -2.39200  -1.10280   1.87650    24    23    25    28
 C    -2.26510  -2.09770   0.92490    25    27    24    11
 C    -2.33300   1.11420   1.97500    26    23    34    18
 C    -1.09240  -2.77070   0.88080    27     1    25    31
 C    -1.22650  -0.71290   2.60200    28    30    34    24
 C     1.18410  -0.70120   2.62230    29    36    30    35
 C    -0.01030  -1.44350   2.52880    30    29    28    31
 C     0.02850  -2.55330   1.63220    31    27    38    30
 C    -0.03320   2.50030   1.61240    32    42    17    33
 C    -0.01150   1.42820   2.54930    33    34    35    32
 C    -1.20730   0.70890   2.65620    34    26    33    28
 C     1.21130   0.71830   2.59820    35    33    40    29
 C     2.32060  -1.12560   1.95400    36    41    37    29
 C     2.30750  -2.12010   1.00510    37    38    36     8
 C     1.15020  -2.79390   0.80500    38    37     4    31
 C     2.25240   2.05660   0.90300    39    42    40    49
 C     2.37550   1.07350   1.86860    40    41    39    35
 C     3.03710  -0.05840   1.52500    41    36    40    50
 C     1.07140   2.72170   0.83410    42    45    39    32
 C     1.11170   1.68580  -2.32520    43    44    48    19
 C     1.63950   2.37310  -1.25310    44    45    43    49
 C     0.71460   2.95230  -0.43870    45    42    44    22
 C     3.20790   0.57410  -0.75850    46    50    49    47
 C     2.61950  -0.15710  -1.80860    47    48    46     5
 C     1.64100   0.40810  -2.60240    48    14    47    43
 C     2.64990   1.82180  -0.44920    49    46    44    39
 C     3.44460  -0.30100   0.25450    50    41    46     8
