    50
C50-C2-167                                                                      
 C    -3.02700  -1.64980  -0.13650     1     4     2    32
 C    -3.32490  -0.67260   0.76590     2     1     3     6
 C    -3.59830   0.61390   0.29840     3     5     2    22
 C    -2.03440  -2.54760   0.12100     4    34     1    16
 C    -3.09880   1.45260   1.20020     5     9     3     7
 C    -2.43870  -0.52450   1.87870     6     7    17     2
 C    -2.35240   0.81570   2.10450     7     5     6    12
 C    -1.19150   2.50240   1.35790     8    10     9    12
 C    -2.35310   2.39190   0.63040     9     5     8    21
 C    -0.06280   2.89890   0.74890    10     8    13    19
 C     0.05330   0.73330   2.51260    11    12    14    15
 C    -1.14320   1.43010   2.27180    12     7    11     8
 C     1.18770   2.46540   1.19500    13    29    10    14
 C     1.29850   1.34630   2.06690    14    31    13    11
 C    -0.05620  -0.73130   2.49560    15    18    17    11
 C    -1.18510  -2.46520   1.20250    16     4    48    17
 C    -1.30790  -1.35180   2.07840    17     6    16    15
 C     1.12980  -1.42450   2.20100    18    30    15    50
 C    -0.03200   2.98450  -0.66000    19    24    10    20
 C    -1.06850   2.36030  -1.41270    20    21    19    27
 C    -2.28850   2.14600  -0.73780    21     9    22    20
 C    -3.10700   1.01890  -0.95030    22    23     3    21
 C    -2.65350   0.04230  -1.79990    23    32    22    28
 C     1.27420   2.80210  -0.93530    24    25    19    29
 C     1.67930   1.93720  -1.86310    25    24    43    26
 C     0.77270   1.11660  -2.46370    26    25    27    35
 C    -0.61880   1.32370  -2.33050    27    28    26    20
 C    -1.40570   0.16750  -2.44460    28    27    23    37
 C     2.07180   2.57470   0.14110    29    24    46    13
 C     2.33520  -0.79890   2.00540    30    47    31    18
 C     2.43930   0.54890   1.82670    31    30    14    45
 C    -2.75800  -1.27520  -1.45100    32    33    23     1
 C    -1.70040  -1.97180  -1.90560    33    34    32    37
 C    -1.28160  -2.82870  -0.97060    34    33    42     4
 C     1.38020  -0.16610  -2.41690    35    36    38    26
 C     0.58840  -1.31930  -2.31500    36    35    37    41
 C    -0.80230  -1.12410  -2.48980    37    33    36    28
 C     2.61560  -0.03320  -1.76090    38    39    43    35
 C     3.06910  -0.99040  -0.89220    39    38    44    40
 C     2.26000  -2.13080  -0.68930    40    49    39    41
 C     1.04150  -2.34450  -1.37850    41    40    42    36
 C     0.01110  -2.99750  -0.63630    42    34    48    41
 C     2.76310   1.28680  -1.41360    43    25    38    46
 C     3.63630  -0.58740   0.32950    44    47    45    39
 C     3.39460   0.71660   0.76900    45    46    44    31
 C     3.09730   1.69890  -0.12580    46    45    29    43
 C     3.13230  -1.48490   1.17540    47    49    44    30
 C     0.06200  -2.93970   0.77890    48    50    16    42
 C     2.38250  -2.45260   0.66430    49    47    50    40
 C     1.21250  -2.56050   1.36390    50    48    49    18
