    50
C50-C1-224                                                                      
 C     3.21710   0.34120  -1.27440     1     5     3     2
 C     3.73880   0.27170   0.01330     2    10    29     1
 C     2.37440   1.35690  -1.65780     3     1     8     6
 C     1.57270  -1.23840  -2.11450     4     5    32     7
 C     2.78130  -0.93700  -1.52030     5    27     1     4
 C     1.18950   1.05930  -2.38240     6    14     7     3
 C     0.68940  -0.24460  -2.61620     7     6     4    13
 C     2.04660   2.37620  -0.73810     8    11     9     3
 C     2.39100   2.20430   0.59260     9    10     8    24
 C     3.21000   1.16360   0.90360    10    15     9     2
 C     0.77600   2.73110  -1.02600    11    14     8    25
 C    -1.15880  -1.71880  -2.02080    12    46    33    13
 C    -0.74830  -0.45780  -2.56720    13    12     7    49
 C     0.27520   2.00020  -2.03600    14    11    50     6
 C     2.63850   0.44880   1.89280    15    10    16    18
 C     2.82460  -0.88940   1.66720    16    15    29    17
 C     1.68320  -1.66340   1.85370    17    16    30    21
 C     1.46430   1.04110   2.28400    18    15    20    24
 C    -0.91020   0.78750   2.48680    19    20    36    23
 C     0.36370   0.24760   2.65300    20    19    18    21
 C     0.49100  -1.14630   2.40570    21    38    17    20
 C    -2.30290   1.92430   1.22760    22    40    23    45
 C    -1.07360   2.02770   1.81790    23    22    26    19
 C     1.30100   2.22050   1.50880    24    26    18     9
 C    -0.24100   2.99600  -0.15700    25    11    43    26
 C     0.00260   2.66960   1.19990    26    23    24    25
 C     3.05340  -1.77160  -0.47060    27    29     5    28
 C     1.95270  -2.57310  -0.33060    28    27    30    32
 C     3.58360  -1.00580   0.50880    29    27     2    16
 C     1.27920  -2.60430   0.89910    30    31    17    28
 C    -0.08860  -2.74700   0.97980    31    30    34    38
 C     1.09860  -2.34810  -1.42410    32    33     4    28
 C    -0.24190  -2.54560  -1.35600    33    32    34    12
 C    -0.85700  -2.92670  -0.15500    34    35    31    33
 C    -2.12770  -2.49080  -0.18150    35    34    46    39
 C    -2.05820  -0.00210   2.22530    36    40    37    19
 C    -1.94510  -1.37000   1.87860    37    36    38    39
 C    -0.62360  -1.88120   1.95610    38    21    31    37
 C    -2.79270  -1.79620   0.80860    39    35    42    37
 C    -2.96020   0.79310   1.54730    40    22    41    36
 C    -3.69970   0.38730   0.49340    41    42    40    44
 C    -3.61160  -0.89790   0.12230    42    41    47    39
 C    -1.43580   2.61610  -0.80630    43    45    25    50
 C    -3.33420   1.20500  -0.55450    44    45    41    48
 C    -2.53120   2.21370  -0.10560    45    43    44    22
 C    -2.34630  -1.84820  -1.36580    46    47    12    35
 C    -3.22980  -0.87760  -1.19490    47    46    42    48
 C    -2.92730   0.39140  -1.62230    48    47    44    49
 C    -1.69150   0.64690  -2.29350    49    50    48    13
 C    -1.06360   1.86330  -1.95110    50    14    49    43
