    50
C50-C2-78                                                                       
 C     4.09540   0.66200   0.80150     1     5     2    23
 C     3.13160   1.42110   1.38120     2    38     1    15
 C    -0.91660   2.27800   0.97000     3     4    16    40
 C     0.39890   2.12160   1.29510     4     3    37    14
 C     3.76870  -0.61530   1.10180     5     1     6     8
 C     3.77220  -1.30740  -0.07410     6     7     5    22
 C     2.76920  -2.14720  -0.30450     7     6    32    11
 C     2.57350  -0.65990   1.84720     8    15    10     5
 C     0.19310  -1.31690   2.02890     9    13    10    18
 C     1.54690  -1.60730   1.66740    10     8     9    11
 C     1.73470  -2.46330   0.52750    11     7    21    10
 C    -2.12810  -1.74770   1.44230    12    13    19    45
 C    -0.82850  -2.07790   1.44360    13    12    20     9
 C     0.79630   1.01180   2.12880    14    15    18     4
 C     2.16720   0.67270   2.04350    15     2     8    14
 C    -1.97700   1.60840   1.56060    16     3    48    17
 C    -1.66470   0.37490   2.18130    17    16    19    18
 C    -0.25160   0.04500   2.34400    18    14    17     9
 C    -2.66990  -0.58620   1.87840    19    12    50    17
 C    -0.61520  -2.72280   0.22630    20    21    33    13
 C     0.61880  -2.71850  -0.24140    21    20    11    31
 C     3.80600  -0.36280  -1.09960    22    23     6    25
 C     4.08130   0.85330  -0.56180    23    24    22     1
 C     3.11760   1.77850  -0.77170    24    23    38    28
 C     2.65720  -0.59220  -1.86770    25    32    22    27
 C     0.25730   0.04710  -2.32430    26    30    27    35
 C     1.67430   0.39190  -2.17030    27    28    25    26
 C     1.98920   1.64130  -1.57540    28    42    24    27
 C    -2.15800   0.67970  -2.01350    29    43    36    30
 C    -0.78520   1.02320  -2.10980    30    29    41    26
 C     0.84380  -2.09210  -1.46630    31    32    21    35
 C     2.13890  -1.76630  -1.45310    32    31    25     7
 C    -1.74730  -2.45220  -0.51910    33    45    20    34
 C    -1.54090  -1.59620  -1.65880    34    36    35    33
 C    -0.18770  -1.32210  -2.02820    35    31    34    26
 C    -2.57080  -0.64990  -1.81930    36    29    34    47
 C     1.32480   2.51940   0.31710    37    38     4    42
 C     2.62040   2.21480   0.41480    38    37     2    24
 C    -2.61170   2.19590  -0.40710    39    40    43    48
 C    -1.31740   2.52560  -0.35740    40    39    41     3
 C    -0.38400   2.16830  -1.33140    41    42    40    30
 C     0.92690   2.33050  -1.02150    42    41    28    37
 C    -3.14380   1.42570  -1.37510    43    39    44    29
 C    -4.10470   0.66860  -0.80880    44    43    47    49
 C    -2.78170  -2.14290   0.31610    45    46    12    33
 C    -3.79440  -1.31370   0.07830    46    45    47    50
 C    -3.78230  -0.62090  -1.08660    47    46    44    36
 C    -3.11690   1.75990   0.77850    48    39    49    16
 C    -4.09600   0.83610   0.56460    49    50    48    44
 C    -3.83230  -0.37090   1.11170    50    49    46    19
