    50
C50-C1-35                                                                       
 C    -3.89740   1.06420  -0.78200     1     5    27     2
 C    -2.76140   1.47890  -1.41930     2     1    29    10
 C     1.41390   1.62380  -1.79130     3    11     4    36
 C     0.02920   1.65100  -1.80390     4     3    30     9
 C    -3.77840   1.51330   0.46990     5     1     6    12
 C    -2.66560   2.27040   0.58660     6     5    20    10
 C     1.54540   2.47840   0.30820     7    11     8    48
 C     0.16200   2.54720   0.42530     8     7    19     9
 C    -0.64330   2.41970  -0.76810     9    10     8     4
 C    -2.00690   2.31810  -0.62830    10     9     2     6
 C     2.19010   2.33260  -0.89500    11    50     7     3
 C    -3.53270   0.40140   1.21300    12     5    15    13
 C    -3.66020  -0.73850   0.43230    13    14    12    27
 C    -2.77480  -1.75550   0.69270    14    22    13    18
 C    -2.38120   0.55920   1.96920    15    12    17    20
 C    -0.15640  -0.18180   2.52290    16    17    21    38
 C    -1.50600  -0.48810   2.28850    17    15    16    18
 C    -1.75370  -1.72810   1.66720    18    23    17    14
 C    -0.46810   2.00890   1.60780    19    20    21     8
 C    -1.83810   1.80770   1.59130    20     6    19    15
 C     0.36850   1.09660   2.27450    21    49    16    19
 C    -2.13570  -2.36320  -0.35240    22    24    14    25
 C    -0.64910  -2.51340   1.28670    23    24    39    18
 C    -0.95300  -2.85000  -0.01650    24    22    33    23
 C    -2.04280  -1.74150  -1.58220    25    26    22    28
 C    -2.84060  -0.65780  -1.77600    26    25    27    29
 C    -3.84480  -0.28840  -0.88720    27     1    26    13
 C    -0.68710  -1.82750  -1.91300    28    25    33    31
 C    -2.08910   0.48790  -2.08610    29     2    26    30
 C    -0.69730   0.51230  -2.32160    30    29     4    31
 C     0.06690  -0.71700  -2.39970    31    28    35    30
 C     1.25970  -2.57160  -0.72230    32    33    34    37
 C    -0.04580  -2.67960  -1.00690    33    32    24    28
 C     2.09760  -1.75940  -1.47370    34    41    32    35
 C     1.48990  -0.71440  -2.24100    35    36    34    31
 C     2.19950   0.50210  -2.12170    36    43     3    35
 C     1.66290  -2.48240   0.62780    37    40    32    39
 C     0.92480  -1.06000   2.32390    38    44    16    39
 C     0.67890  -2.25240   1.61430    39    23    38    37
 C     2.83640  -1.79200   0.57500    40    41    37    46
 C     3.19600  -1.47120  -0.69660    41    42    40    34
 C     3.87520  -0.31800  -0.67200    42    41    43    45
 C     3.43610   0.68690  -1.47850    43    50    42    36
 C     2.11790  -0.33440   2.17080    44    46    49    38
 C     3.92550   0.14100   0.63970    45    47    46    42
 C     3.20180  -0.75320   1.40450    46    40    45    44
 C     3.57960   1.47510   0.56170    47    50    45    48
 C     2.41220   1.84850   1.22950    48    49    47     7
 C     1.73120   1.00910   2.08940    49    21    48    44
 C     3.40590   1.80780  -0.73330    50    11    43    47
