    50
C50-C1-211                                                                      
 C     2.28550  -0.42410   1.80320     1     2     6    36
 C     3.17910   0.35390   1.13860     2     4     1    31
 C     3.45020   1.15770  -0.78590     3     7     4    28
 C     3.64760   0.01500  -0.08530     4     2     3    19
 C     0.69890  -2.20680   1.78540     5    49     6    37
 C     1.94620  -1.71650   1.36850     6     5     1    18
 C     2.57360   0.85650  -1.72050     7     3     9     8
 C     1.55720   1.76610  -1.75780     8     7    12    27
 C     2.30780  -0.47900  -1.75710     9     7    10    19
 C     1.06790  -0.95060  -2.16490    10     9    16    11
 C    -0.00310  -0.00000  -2.42560    11    15    10    12
 C     0.28360   1.40830  -2.18140    12    13     8    11
 C    -0.74690   2.24090  -1.76920    13    25    12    21
 C    -1.55930  -1.75500  -1.74110    14    17    15    47
 C    -1.36110  -0.45000  -2.17550    15    24    14    11
 C     0.74830  -2.23290  -1.73790    16    17    10    20
 C    -0.54360  -2.67070  -1.68250    17    48    16    14
 C     2.36070  -2.10440   0.00940    18    19    20     6
 C     3.03450  -1.07600  -0.67740    19     4    18     9
 C     1.42570  -2.91190  -0.67560    20    50    18    16
 C    -0.59240   3.14240  -0.66900    21    22    26    13
 C    -1.84030   3.14290  -0.06490    22    32    23    21
 C    -2.71600   2.41500  -0.79430    23    25    22    41
 C    -2.31530   0.47120  -1.77140    24    25    15    40
 C    -2.04150   1.80430  -1.74240    25    23    24    13
 C     0.63040   3.07260   0.02460    26    21    27    29
 C     1.78880   2.65980  -0.66370    27    28    26     8
 C     2.93900   2.18030  -0.05830    28    31     3    27
 C     0.52300   2.56190   1.40650    29    30    33    26
 C     1.58470   1.74440   1.83180    30    31    29    36
 C     2.75870   1.65480   1.16870    31    28    30     2
 C    -1.89060   2.59760   1.16680    32    22    33    42
 C    -0.77490   2.21360   1.83110    33    32    29    34
 C    -1.03550   0.91880   2.33410    34    35    33    45
 C    -0.00160   0.01480   2.52870    35    36    34    37
 C     1.29750   0.44770   2.32190    36    35    30     1
 C    -0.28200  -1.32470   2.29440    37    35    38     5
 C    -1.52710  -1.75710   1.79230    38    39    44    37
 C    -1.29170  -2.90710   1.11490    39    46    38    49
 C    -3.18990   0.21140  -0.66980    40    41    43    24
 C    -3.33010   1.45530  -0.06450    41    42    23    40
 C    -2.80040   1.57450   1.17040    42    41    45    32
 C    -2.97990  -0.99820   0.02080    43    40    47    44
 C    -2.48230  -0.81050   1.39580    44    38    45    43
 C    -2.29930   0.50850   1.83710    45    42    44    34
 C    -1.80870  -3.20140  -0.10160    46    48    39    47
 C    -2.43410  -2.10250  -0.66760    47    46    43    14
 C    -0.72320  -3.63700  -0.78270    48    17    46    50
 C     0.04690  -3.19290   1.12220    49    50     5    39
 C     0.43230  -3.67800  -0.07530    50    49    48    20
