    50
C50-C2-238                                                                      
 C     1.47290   2.97240   0.00380     1     2    22     6
 C     0.16550   3.25480   0.01010     2     1     3    19
 C    -0.56060   2.95680  -1.11020     3     7     2     4
 C     0.01620   1.98880  -1.98250     4    15     5     3
 C     1.36690   1.57660  -1.91120     5     4     6    12
 C     2.18810   2.28470  -0.96810     6    35     1     5
 C    -1.86900   2.67000  -0.94330     7     8     3    17
 C    -2.16670   1.58350  -1.68100     8     7    10    15
 C    -2.99010  -0.53180  -1.23110     9    10    33    16
 C    -3.11410   0.81440  -1.07470    10     9     8    20
 C     2.85580  -0.34830  -1.53910    11    48    34    12
 C     1.66510   0.17110  -2.18110    12    11     5    13
 C     0.54260  -0.77010  -2.40950    13    50    14    12
 C    -0.81130  -0.27660  -2.43870    14    15    13    16
 C    -1.02470   1.09930  -2.29390    15     8    14     4
 C    -1.88010  -1.09640  -1.91660    16    46     9    14
 C    -2.49670   2.46600   0.24720    17    20     7    18
 C    -1.63670   2.31600   1.31260    18    19    17    24
 C    -0.34800   2.76100   1.24680    19    18    23     2
 C    -3.29540   1.37870   0.19070    20    17    31    10
 C     2.81070   1.60100   1.01460    21    22    29    35
 C     1.79460   2.40280   1.19440    22    21    23     1
 C     0.68350   2.08550   1.88820    23    22    19    27
 C    -1.91620   1.09280   1.92550    24    18    31    26
 C    -1.03980  -1.09450   2.29980    25    32    38    26
 C    -0.83230   0.28760   2.44760    26    25    27    24
 C     0.52490   0.76390   2.41480    27    23    26    28
 C     1.65400  -0.16190   2.19010    28    29    39    27
 C     2.83860   0.34110   1.53670    29    21    37    28
 C    -3.12680  -0.79700   1.12580    30    31    32    33
 C    -3.06060   0.55360   1.27080    31    30    20    24
 C    -2.18490  -1.59120   1.70470    32    44    30    25
 C    -3.23440  -1.36260  -0.15340    33    47     9    30
 C     3.53450   0.37080  -0.56580    34    35    37    11
 C     3.17330   1.60840  -0.30540    35    34     6    21
 C     3.14960  -1.60380   0.28350    36    37    48    40
 C     3.52810  -0.38760   0.59190    37    36    29    34
 C    -0.00020  -1.97990   1.97900    38    25    39    41
 C     1.34890  -1.56040   1.91610    39    38    40    28
 C     2.14790  -2.26350   0.95280    40    36    43    39
 C    -0.56740  -2.95890   1.10470    41    44    42    38
 C     0.16340  -3.23070  -0.02770    42    43    41    45
 C     1.46950  -2.95360  -0.03370    43    42    49    40
 C    -1.88340  -2.67380   0.96100    44    32    41    47
 C    -0.34380  -2.76960  -1.27470    45    46    50    42
 C    -1.63760  -2.33830  -1.32530    46    45    47    16
 C    -2.47440  -2.47340  -0.24880    47    33    44    46
 C     2.84960  -1.63040  -1.05440    48    49    11    36
 C     1.83650  -2.43770  -1.23320    49    48    50    43
 C     0.71220  -2.10690  -1.90610    50    49    45    13
