    50
C50-C1-195                                                                      
 C     3.21360   0.10360   0.76540     1     6     3     2
 C     2.79960   1.43020   0.57550     2     4     1    11
 C     2.59000  -0.67340   1.72870     3    14     1    27
 C     1.90610   1.98300   1.46560     4     5     2    28
 C     1.01030   2.88940   1.02960     5     4    37     9
 C     3.33530  -0.44220  -0.49140     6     7     1    12
 C     2.95850   0.49340  -1.39520     7     8     6    11
 C     2.16560  -0.10730  -2.28050     8     7    50    15
 C     0.75710   3.16250  -0.31210     9    46     5    10
 C     1.43710   2.38520  -1.28340    10     9    11    49
 C     2.58230   1.66680  -0.81250    11     7     2    10
 C     2.80910  -1.69070  -0.82740    12    13    15     6
 C     2.18460  -2.46190   0.11610    13    12    14    22
 C     2.15090  -1.92670   1.39020    14    17     3    13
 C     2.05680  -1.41200  -1.94530    15     8    20    12
 C     0.20190  -2.92740   1.13880    16    17    18    22
 C     0.96740  -2.16870   1.95100    17    14    16    26
 C    -1.14220  -2.77350   1.19180    18    16    19    24
 C    -1.87770  -2.89720   0.03450    19    32    18    23
 C     0.77640  -1.84010  -2.15940    20    15    21    42
 C     0.14530  -2.75160  -1.29230    21    23    20    22
 C     0.89940  -3.01670  -0.09610    22    13    16    21
 C    -1.24440  -2.66200  -1.18070    23    19    21    45
 C    -1.67970  -1.66590   1.91430    24    29    25    18
 C    -0.86100  -0.70210   2.55240    25    24    26    30
 C     0.51530  -1.04890   2.61650    26    17    27    25
 C     1.55380  -0.12160   2.50860    27    28    26     3
 C     1.22130   1.19730   2.41020    28    27     4    31
 C    -2.77490  -1.30180   1.19020    29    32    24    33
 C    -1.21090   0.70010   2.40680    30    31    25    34
 C    -0.11620   1.63290   2.44160    31    37    28    30
 C    -2.91860  -2.08050   0.11690    32    41    19    29
 C    -3.01140   0.00770   0.88120    33    29    34    38
 C    -2.33230   1.06950   1.51920    34    33    35    30
 C    -2.22150   2.25440   0.74310    35    36    40    34
 C    -1.14880   3.09170   0.88950    36    37    35    46
 C    -0.16090   2.78520   1.70490    37    36     5    31
 C    -3.26180  -0.01230  -0.53400    38    39    41    33
 C    -2.73250   1.01230  -1.24900    39    40    38    43
 C    -2.38680   2.15830  -0.63400    40    39    47    35
 C    -3.04400  -1.30770  -0.94280    41    32    38    45
 C     0.07980  -0.70350  -2.67280    42    44    50    20
 C    -1.72080   0.76800  -2.21460    43    44    39    48
 C    -1.29200  -0.56080  -2.44870    44    42    45    43
 C    -1.97880  -1.59800  -1.79290    45    41    44    23
 C    -0.59720   3.35950  -0.34740    46    47     9    36
 C    -1.34390   2.74400  -1.25550    47    46    40    48
 C    -0.81940   1.87130  -2.16630    48    47    49    43
 C     0.58060   1.69160  -2.27450    49    50    48    10
 C     0.97700   0.39930  -2.67020    50     8    49    42
