    50
C50-C1-145                                                                      
 C     3.77650   0.86200   0.28080     1     5    29     4
 C     1.13220   2.56960  -0.85840     2     3    35    16
 C     2.43310   2.21590  -0.69420     3     4     2    30
 C     3.02050   1.96570   0.49240     4     3     1    18
 C     3.36500  -0.04560   1.16800     5     1     6     8
 C     3.11030  -1.23090   0.51530     6     7     5    28
 C     2.16230  -2.06550   1.02150     7    20     6    11
 C     2.37250   0.47940   1.99170     8     5    10    18
 C     0.09180   0.26270   2.68850     9    10    23    13
 C     1.32470  -0.32730   2.45810    10     9     8    11
 C     1.25270  -1.66200   2.02530    11    10     7    25
 C    -1.46050   1.68540   2.03330    12    43    13    19
 C    -0.13230   1.60140   2.26020    13    12    17     9
 C    -1.58730   2.18760  -1.31700    14    48    34    15
 C    -1.18640   2.68510  -0.03090    15    19    14    16
 C     0.23430   2.77640   0.22950    16     2    15    17
 C     0.80870   2.28630   1.49600    17    13    18    16
 C     2.13460   1.80800   1.53080    18     4    17     8
 C    -2.09920   2.27880   0.98310    19    12    50    15
 C     1.44710  -2.82710   0.17690    20     7    21    26
 C     0.22450  -3.05820   0.69850    21    22    20    25
 C    -0.66980  -3.05550  -0.27970    22    21    47    31
 C    -1.15010  -0.40500   2.58600    23    43     9    24
 C    -1.25050  -1.69000   2.00000    24    25    23    46
 C     0.00880  -2.30350   1.80780    25    21    24    11
 C     1.34270  -2.50920  -1.16560    26    31    20    27
 C     2.05580  -1.43120  -1.69430    27    26    28    32
 C     3.13960  -0.93350  -0.88750    28    29     6    27
 C     3.58740   0.36500  -0.96470    29    30     1    28
 C     2.76180   1.22190  -1.58480    30    29    33     3
 C     0.00520  -2.67800  -1.39850    31    37    22    26
 C     1.24170  -0.46550  -2.45150    32    33    38    27
 C     1.64480   0.89330  -2.27850    33    30    35    32
 C    -0.62180   1.65390  -2.16410    34    35    14    36
 C     0.68240   1.86430  -1.98530    35    34    33     2
 C    -1.06520   0.40710  -2.60380    36    39    34    38
 C    -0.79540  -1.86020  -2.10320    37    31    38    40
 C    -0.18380  -0.69790  -2.64160    38    36    37    32
 C    -2.35520   0.31930  -2.14690    39    48    42    36
 C    -2.07430  -1.85990  -1.47490    40    42    47    37
 C    -3.57980  -0.30570  -0.45690    41    42    49    45
 C    -2.89470  -0.78140  -1.54920    42    40    39    41
 C    -2.08440   0.52550   2.32090    43    44    23    12
 C    -3.14220   0.37850   1.53740    44    43    45    50
 C    -3.25590  -0.78550   0.81160    45    44    41    46
 C    -2.32250  -1.84790   0.98810    46    45    47    24
 C    -1.89240  -2.49270  -0.21490    47    22    40    46
 C    -2.73090   1.42590  -1.45470    48    49    39    14
 C    -3.57160   1.08660  -0.45760    49    50    48    41
 C    -3.25740   1.51620   0.76100    50    49    44    19
