    50
C50-C2-175                                                                      
 C     2.77300  -1.61740   0.82750     1     2     3    28
 C     1.68790  -2.41330   0.91450     2     1     7    20
 C     2.87590  -0.39830   1.42430     3     1    40     5
 C     1.53790   1.50620   1.88240     4    13     9     5
 C     1.69900   0.10880   2.05910     5     4     3     6
 C     0.51370  -0.71490   2.20670     6     5     7    15
 C     0.56060  -2.07050   1.65380     7     8     2     6
 C    -0.62810  -2.66790   1.24790     8    17     7    10
 C     2.43470   2.27380   1.12500     9    39    50     4
 C    -0.75120  -3.23390  -0.05960    10    19    11     8
 C    -2.00360  -2.83640  -0.42850    11    12    10    22
 C    -2.75290  -2.43390   0.60340    12    26    17    11
 C     0.25820   2.05980   1.78310    13     4    14    47
 C    -0.92610   1.32960   2.00520    14    13    18    15
 C    -0.81000  -0.08210   2.26590    15    16    14     6
 C    -1.95920  -0.85460   1.94800    16    17    46    15
 C    -1.83880  -2.14890   1.53490    17    12     8    16
 C    -2.10830   1.82530   1.37160    18    45    49    14
 C     0.32410  -3.06950  -0.86250    19    20    10    24
 C     1.57010  -2.95580  -0.36750    20    19    27     2
 C    -3.09320  -0.96190  -0.93750    21    25    26    22
 C    -2.07700  -1.81860  -1.38290    22    11    21    23
 C    -0.91240  -1.34170  -2.05620    23    24    22    34
 C     0.27380  -2.06160  -1.85210    24    32    23    19
 C    -3.04530   0.35290  -1.26450    25    21    33    43
 C    -3.46520  -1.33350   0.35850    26    12    46    21
 C     2.41930  -2.25470  -1.15010    27    28    20    32
 C     3.35180  -1.61920  -0.41450    28    29    27     1
 C     3.71720  -0.35230  -0.57670    29    28    40    30
 C     2.86820   0.38490  -1.42440    30    31    29    36
 C     2.77050   1.59360  -0.80990    31    38    30    39
 C     1.55530  -1.51710  -1.95860    32    27    24    36
 C    -1.92180   0.84610  -1.94130    33    41    25    34
 C    -0.79170   0.07080  -2.30000    34    33    23    35
 C     0.53220   0.69960  -2.23580    35    36    34    37
 C     1.71890  -0.12110  -2.10450    36    32    30    35
 C     0.56820   2.03810  -1.63410    37    38    42    35
 C     1.68620   2.39010  -0.88000    38    31    37    50
 C     3.37930   1.62490   0.42100    39    40     9    31
 C     3.73950   0.36330   0.60840    40    39    29     3
 C    -1.81060   2.12240  -1.49580    41    42    44    33
 C    -0.60920   2.65090  -1.20800    42    41    37    48
 C    -3.44570   1.31940  -0.32990    43    44    45    25
 C    -2.74080   2.42300  -0.56870    44    43    49    41
 C    -3.13700   0.95360   0.97230    45    46    43    18
 C    -3.10660  -0.35830   1.29170    46    45    26    16
 C     0.32290   3.13450   0.85640    47    50    48    13
 C    -0.76680   3.28200   0.06670    48    47    49    42
 C    -2.00810   2.88380   0.44930    49    44    48    18
 C     1.56880   3.00250   0.37000    50    47     9    38
