    50
C50-C1-65                                                                       
 C     3.67890   1.10550  -1.17960     1    30     3     2
 C     2.91410   2.02110  -0.54820     2     1    33    13
 C     2.81870   0.46880  -1.99190     3     1    17     6
 C     0.40160  -0.91200  -2.35220     4     5    16    10
 C    -0.86360  -1.46480  -2.10380     5    12    18     4
 C     1.62180   1.14470  -2.11890     6     3    10    13
 C    -1.92660   2.37430  -0.28290     7    24    50     8
 C    -0.76500   2.28610  -1.10930     8    15     7     9
 C    -0.82920   1.26000  -2.15370     9    11    10     8
 C     0.39870   0.55750  -2.43330    10     6     9     4
 C    -2.06470   0.58700  -2.21130    11    12    25     9
 C    -2.01650  -0.77290  -2.15950    12     5    11    22
 C     1.68790   2.19440  -1.17830    13    15     2     6
 C     0.58080   2.46680   0.88380    14    48    32    15
 C     0.51000   2.56130  -0.54220    15    13     8    14
 C     1.57130  -1.55130  -1.79890    16    17    20     4
 C     2.77850  -0.86610  -1.66960    17     3    16    28
 C    -1.12450  -2.44280  -1.13920    18    19     5    23
 C    -0.03610  -2.82190  -0.43940    19    18    21    20
 C     1.27520  -2.47200  -0.75420    20    19    26    16
 C    -0.13390  -2.75620   0.90970    21    29    19    46
 C    -3.01270  -1.27040  -1.36970    22    42    12    23
 C    -2.37690  -2.16370  -0.55050    23    22    18    45
 C    -3.14250   1.78080  -0.54690    24    25    47     7
 C    -3.21230   0.86190  -1.51360    25    24    11    42
 C     2.02000  -2.36730   0.44150    26    27    29    20
 C     3.08170  -1.52910   0.54350    27    26    28    36
 C     3.65590  -0.96210  -0.56810    28    30    27    17
 C     1.04770  -2.40290   1.39120    29    21    26    34
 C     4.17410   0.25280  -0.26750    30     1    28    31
 C     3.64750   0.56590   0.94710    31    30    33    36
 C     1.70320   1.86640   1.45250    32    33    14    37
 C     2.88890   1.71870   0.79740    33    32     2    31
 C     0.84940  -1.40130   2.29390    34    29    35    38
 C     1.81250  -0.38220   2.30910    35    34    37    36
 C     3.00380  -0.51000   1.54410    36    31    35    27
 C     1.18140   0.88130   2.30040    37    41    32    35
 C    -0.55650  -1.24100   2.37000    38    40    46    34
 C    -2.45170   0.21580   2.03450    39    49    40    44
 C    -1.14150   0.01570   2.51820    40    38    39    41
 C    -0.19950   1.06670   2.39550    41    37    48    40
 C    -3.81590  -0.26300  -0.97680    42    22    43    25
 C    -3.98210  -0.03880   0.36490    43    47    42    44
 C    -3.15430  -0.75630   1.24700    44    43    45    39
 C    -2.41190  -1.90530   0.86520    45    46    44    23
 C    -1.20770  -2.16880   1.52010    46    21    45    38
 C    -3.70680   1.27510   0.57540    47    49    24    43
 C    -0.54680   2.15930   1.59550    48    50    14    41
 C    -2.82680   1.46820   1.54500    49    47    50    39
 C    -1.80010   2.26890   1.11780    50    48    49     7
