    50
C50-C1-215                                                                      
 C    -2.77120   0.36740   1.73440     1     2    38    13
 C    -3.02020  -0.89580   1.43390     2     1     6    34
 C    -0.09100   2.48140   1.50420     3     4    14    39
 C    -1.36960   2.04200   1.63360     4     3    13    37
 C    -0.76160  -1.48480   2.12890     5     8     6    11
 C    -2.03530  -1.82320   1.57960     6     2     7     5
 C    -2.11040  -2.57510   0.41860     7    10    15     6
 C     0.33380  -2.22860   1.66030     8    49     5     9
 C     0.17480  -3.06140   0.51240     9    21    10     8
 C    -0.98660  -2.99220  -0.18380    10     7     9    18
 C    -0.47850  -0.10260   2.49490    11    13    12     5
 C     0.88000   0.40090   2.41070    12    14    11    48
 C    -1.56770   0.79220   2.22530    13     1     4    11
 C     1.00630   1.77160   1.99870    14    42     3    12
 C    -2.96630  -1.92400  -0.42030    15    34     7    16
 C    -2.19010  -1.67790  -1.53930    16    17    15    18
 C    -2.18780  -0.40210  -2.05450    17    16    27    22
 C    -0.97130  -2.35590  -1.44980    18    16    10    19
 C     0.26610  -1.87930  -1.96600    19    20    18    26
 C     1.42170  -2.34060  -1.34300    20    28    19    21
 C     1.36220  -2.96500  -0.09840    21     9    45    20
 C    -2.96600   0.62250  -1.45570    22    23    33    17
 C    -2.18000   1.73710  -1.55260    23    24    22    36
 C    -1.03270   1.44720  -2.19550    24    23    25    27
 C     0.00520   2.20820  -1.79600    25    24    31    35
 C     0.29460  -0.51640  -2.47600    26    27    19    30
 C    -0.95890   0.12360  -2.49570    27    24    17    26
 C     2.56180  -1.61340  -1.29350    28    20    29    46
 C     2.65220  -0.32410  -1.72670    29    28    43    30
 C     1.49520   0.31500  -2.25970    30    29    31    26
 C     1.32650   1.72300  -1.87070    31    25    32    30
 C     2.22460   2.26830  -0.91080    32    44    40    31
 C    -3.68390   0.36260  -0.28060    33    34    22    38
 C    -3.64120  -0.92400   0.20230    34    15    33     2
 C    -0.54100   3.00320  -0.74650    35    39    36    25
 C    -1.88440   2.65210  -0.57280    36    23    37    35
 C    -2.36850   2.25560   0.66540    37    38    36     4
 C    -3.23240   1.19900   0.75320    38     1    37    33
 C     0.31750   3.12100   0.31500    39    40    35     3
 C     1.62680   2.84970   0.19670    40    39    42    32
 C     3.07510   1.38560   0.93100    41    42    47    44
 C     2.08490   2.17710   1.27740    42    41    40    14
 C     3.53390   0.26300  -0.83260    43    44    50    29
 C     3.24970   1.48950  -0.42650    44    43    41    32
 C     2.34800  -2.44080   0.64940    45    46    21    49
 C     3.23570  -1.77500  -0.09710    46    50    45    28
 C     3.14490   0.08340   1.34380    47    41    50    48
 C     2.00140  -0.46350   2.04690    48    49    47    12
 C     1.66400  -1.79090   1.68300    49    45     8    48
 C     3.70730  -0.58290   0.24820    50    46    43    47
