    38
C38-C2-10                                                                       
 C    -2.57370   0.44500   1.42140     1    12     3     2
 C    -1.43040   0.09780   2.12970     2     1     4     6
 C    -2.51180   1.47890   0.50840     3     1    23    17
 C    -0.32680   0.96220   2.18300     4     2     5    24
 C     1.00080   0.48860   2.24170     5    30     8     4
 C    -1.21000  -1.27050   1.85760     6    11     7     2
 C     0.11240  -1.68930   1.67760     7     6     8    15
 C     1.22020  -0.87930   1.98810     8     9     7     5
 C     2.27070  -1.23750   1.15400     9    36    10     8
 C     3.14710  -0.34730   0.55180    10    29    38     9
 C    -2.21250  -1.67250   0.98260    11    12    13     6
 C    -3.06800  -0.63810   0.75250    12    11     1    16
 C    -1.78740  -2.09980  -0.24590    13    11    14    19
 C    -0.47700  -2.41510  -0.50270    14    13    15    33
 C     0.48630  -2.42090   0.51230    15    36    14     7
 C    -3.18740  -0.34680  -0.58420    16    17    12    19
 C    -2.87060   0.97520  -0.74140    17    16    18     3
 C    -1.83420   1.34200  -1.55640    18    17    22    21
 C    -2.30990  -1.24700  -1.18740    19    13    20    16
 C    -1.22940  -0.90790  -2.00070    20    19    33    21
 C    -0.99330   0.46490  -2.23530    21    18    28    20
 C    -0.99550   2.19290  -0.88870    22    18    25    23
 C    -1.37310   2.26560   0.45270    23     3    24    22
 C    -0.31780   2.11520   1.34980    24    27    23     4
 C     0.31260   2.05720  -1.31060    25    22    26    28
 C     1.35550   2.24780  -0.40210    26    32    25    27
 C     0.99580   2.23310   0.94910    27    30    24    26
 C     0.32930   0.93500  -2.18240    28    35    21    25
 C     2.83860   0.97920   0.72340    29    30    10    32
 C     1.84550   1.37500   1.58290    30    27    29     5
 C     2.59630   0.44330  -1.43120    31    38    32    35
 C     2.50210   1.47890  -0.52300    32    31    29    26
 C    -0.11240  -1.70800  -1.68790    33    34    20    14
 C     1.21960  -1.29280  -1.85100    34    37    33    35
 C     1.44130   0.08300  -2.12350    35    31    28    34
 C     1.79220  -2.12960   0.22490    36    15     9    37
 C     2.25490  -1.69680  -1.00210    37    38    36    34
 C     3.09820  -0.66080  -0.78460    38    37    10    31
