    38
C38-C1-11                                                                       
 C     2.85400  -0.38360   0.96880     1     4     2     6
 C     3.12020  -0.15860  -0.37340     2     5     1    21
 C     1.14630  -1.55390   1.77050     3     4    28    12
 C     2.28430  -1.60450   1.07130     4     3    19     1
 C     2.67150   0.99450  -0.94380     5     2     8    14
 C     1.99430   0.49090   1.65860     6     7     1    12
 C     1.72010   1.73160   1.08530     7     9     6     8
 C     2.11370   2.01900  -0.23400     8     5    17     7
 C     0.43880   2.22330   1.21260     9     7    33    13
 C    -1.50600  -0.66360   1.86980    10    36    27    11
 C    -0.44470   0.24720   2.22510    11    12    13    10
 C     0.88580  -0.24790   2.18210    12     3    11     6
 C    -0.65210   1.59820   1.80550    13     9    38    11
 C     1.71390   0.67380  -1.87260    14     5    15    18
 C     1.57890  -0.69230  -1.91790    15    14    16    21
 C     0.28370  -1.18540  -2.00750    16    15    22    25
 C     0.99180   2.50830  -0.86250    17    33     8    18
 C     0.64310   1.56630  -1.85270    18    14    17    24
 C     2.04270  -2.16940  -0.12950    19     4    21    20
 C     0.71510  -2.59550  -0.10900    20    19    22    28
 C     2.49890  -1.23960  -1.02820    21    19    15     2
 C    -0.14020  -2.25370  -1.17200    22    23    20    16
 C    -1.47820  -2.09340  -0.96170    23    22    26    30
 C    -0.69790   1.09990  -1.98690    24    18    25    35
 C    -0.84080  -0.32410  -2.15310    25    26    16    24
 C    -1.94150  -0.98010  -1.62820    26    32    23    25
 C    -1.18670  -1.93570   1.30370    27    28    30    10
 C     0.14550  -2.28960   1.17210    28     3    27    20
 C    -3.00310  -1.09160   0.25390    29    30    36    32
 C    -2.10280  -2.09880   0.26850    30    29    23    27
 C    -2.74840   0.92640  -0.60540    31    32    37    35
 C    -2.93850  -0.38160  -0.91590    32    31    26    29
 C     0.02990   2.81280   0.03160    33    34    17     9
 C    -1.27360   2.51590  -0.08820    34    33    38    35
 C    -1.70520   1.69990  -1.13940    35    34    31    24
 C    -2.69470  -0.20890   1.25350    36    29    37    10
 C    -2.73640   1.07610   0.78020    37    38    36    31
 C    -1.78340   1.96890   1.07100    38    37    34    13
