    38
C38-C1-3                                                                        
 C    -3.40740  -0.76870  -0.02100     1    24     3     2
 C    -2.39120  -1.70900  -0.06850     2     1    27     9
 C    -3.15580   0.01140  -1.10150     3     4     1    12
 C    -2.13170  -0.47960  -1.83530     4     3     6     9
 C     0.13200   0.22360  -2.25950     5     6    14    10
 C    -1.20710   0.51940  -2.07890     6     4     5    11
 C     0.36910  -2.33120  -0.05270     7    38    26     8
 C    -0.24700  -1.93410  -1.28800     8     9    10     7
 C    -1.62160  -1.63860  -1.24880     9     4     8     2
 C     0.63730  -1.08160  -2.02520    10    37     5     8
 C    -1.58830   1.63160  -1.29440    11    12    13     6
 C    -2.75390   1.24530  -0.64200    12     3    18    11
 C    -0.54530   2.27290  -0.63220    13    11    15    16
 C     1.15060   1.11670  -1.88960    14    23     5    15
 C     0.80470   2.15100  -0.99930    15    21    13    14
 C    -0.58220   2.21360   0.78410    16    19    17    13
 C    -1.59780   1.50500   1.40550    17    16    18    30
 C    -2.77630   1.18040   0.74560    18    24    17    12
 C     0.72210   2.06300   1.15900    19    16    21    28
 C     2.72400   1.45620   0.32970    20    21    22    32
 C     1.60700   2.21350   0.12750    21    20    19    15
 C     3.19190   0.58210  -0.62590    22    20    23    35
 C     2.29980   0.36880  -1.65760    23    37    22    14
 C    -3.20080  -0.06240   1.11740    24     1    25    18
 C    -2.15520  -0.59210   1.81100    25    24    27    30
 C    -0.32980  -1.97930   1.12590    26    27    31     7
 C    -1.66540  -1.69180   1.11480    27    26     2    25
 C     1.18420   1.03740   1.97300    28    19    32    29
 C     0.19740   0.06100   2.30590    29    30    28    31
 C    -1.18360   0.36070   2.15290    30    25    29    17
 C     0.60260  -1.24430   1.88180    31    34    26    29
 C     2.45570   0.72060   1.48140    32    33    20    28
 C     2.86620  -0.55390   1.22310    33    32    34    35
 C     1.84860  -1.46270   1.33780    34    33    38    31
 C     3.38350  -0.66650  -0.05090    35    33    36    22
 C     2.64370  -1.62680  -0.72010    36    38    37    35
 C     1.98990  -0.96750  -1.73420    37    23    36    10
 C     1.72820  -2.14340   0.15160    38    36    34     7
