    38
C38-C2-6                                                                        
 C     3.19580  -0.67967  -0.14047     1    21     3     2
 C     2.68009  -0.38922   1.15034     2    28     1     9
 C     2.68344  -1.81276  -0.82608     3     1    11     4
 C     1.78426  -2.18180   0.20923     4     9     3     6
 C    -0.55343  -2.46927   0.44127     5    18    10     6
 C     0.55607  -2.46472  -0.44509     6    14     4     5
 C     0.38122   0.40251   2.48828     7    27    36     8
 C     0.51839  -0.94903   2.07444     8    10     9     7
 C     1.67690  -1.37011   1.36947     9     8     4     2
 C    -0.56581  -1.77757   1.68142    10    38     8     5
 C     1.87573  -1.25097  -1.85005    11    14     3    12
 C     1.89340   0.16789  -1.90606    12    21    13    11
 C     0.83456   1.07323  -2.18141    13    22    17    12
 C     0.56587  -1.77426  -1.68595    14    11     6    16
 C    -1.67085  -1.37887  -1.36437    15    26    18    16
 C    -0.51976  -0.94514  -2.07394    16    17    14    15
 C    -0.38134   0.40637  -2.48712    17    25    16    13
 C    -1.78726  -2.18688  -0.20247    18    35    15     5
 C     2.39702   1.48593   0.17849    19    28    21    20
 C     1.25306   2.30262  -0.02381    20    31    22    19
 C     2.70190   0.48640  -0.78297    21    19    12     1
 C     0.62187   2.15579  -1.28736    22    23    13    20
 C    -0.77641   2.40243  -1.30815    23    25    22    29
 C    -2.41683   0.95758  -1.49701    24    26    32    25
 C    -1.30308   1.45419  -2.22461    25    23    17    24
 C    -2.67383  -0.39604  -1.15338    26    24    34    15
 C     1.29958   1.45319   2.22538    27    28     7    31
 C     2.41594   0.96197   1.49815    28    19    27     2
 C    -1.24993   2.30375   0.02697    29    32    23    30
 C    -0.62173   2.15293   1.29154    30    31    36    29
 C     0.77581   2.40385   1.30977    31    30    27    20
 C    -2.39363   1.48793  -0.17995    32    29    33    24
 C    -2.70839   0.48646   0.77630    33    34    32    37
 C    -3.19451  -0.68403   0.13595    34    35    33    26
 C    -2.68505  -1.81208   0.83190    35    34    18    38
 C    -0.83607   1.06482   2.17840    36    37    30     7
 C    -1.89895   0.16584   1.89812    37    38    36    33
 C    -1.87404  -1.25328   1.85486    38    37    10    35
