    38
C38-C2v-12                                                                      
 C    -1.12590  -2.57390  -0.03140     1     2    21     6
 C    -2.28750  -1.93290  -0.20480     2     1     3    19
 C    -2.40600  -1.10560  -1.28500     3     8     2     4
 C    -1.22410  -0.71340  -1.93560     4     3     5    13
 C    -0.00830  -1.44190  -1.79660     5     4    17     6
 C     0.00490  -2.53760  -0.84650     6    27     1     5
 C    -2.40310   1.08710  -1.28400     7     8     9    13
 C    -3.06860  -0.00930  -0.85580     8     3     7    18
 C    -2.27680   1.91040  -0.19890     9    10     7    23
 C    -1.11320   2.55910  -0.02950    10     9    31    14
 C     1.21350   0.71360  -1.91630    11    34    12    17
 C    -0.00690   1.43630  -1.80550    12    13    11    14
 C    -1.22380   0.71610  -1.94750    13     7    12     4
 C     0.00800   2.52250  -0.84820    14    10    36    12
 C     3.04460  -0.00470  -0.84150    15    16    34    38
 C     2.39320  -1.10540  -1.26840    16    15    26    17
 C     1.21350  -0.71960  -1.91740    17    16     5    11
 C    -3.17390   0.00390   0.51630    18    23    19     8
 C    -2.59110  -1.16410   0.91920    19    18     2    22
 C     0.66010  -2.18860   1.19620    20    21    29    27
 C    -0.66660  -2.18140   1.20410    21    20    22     1
 C    -1.44270  -1.18220   1.72700    22    21    19    25
 C    -2.59640   1.16260   0.93220    23    18     9    24
 C    -1.44210   1.20570   1.73140    24    31    23    25
 C    -0.74500   0.00880   2.14180    25    22    24    28
 C     2.28770  -1.96930  -0.21180    26    27    16    30
 C     1.12980  -2.61060  -0.02770    27    26    20     6
 C     0.74400   0.00610   2.12600    28    29    33    25
 C     1.43990  -1.18270   1.69650    29    20    30    28
 C     2.59920  -1.16420   0.90190    30    38    29    26
 C    -0.66060   2.20540   1.22150    31    32    24    10
 C     0.66490   2.20820   1.22160    32    31    33    36
 C     1.45220   1.20350   1.72330    33    32    37    28
 C     2.39220   1.10440  -1.25270    34    15    35    11
 C     2.28890   1.95050  -0.18750    35    36    34    37
 C     1.12580   2.59350  -0.02090    36    35    32    14
 C     2.61980   1.18040   0.93350    37    38    35    33
 C     3.17870   0.01070   0.52330    38    37    30    15
