    32
C32-D3h-5                                                                       
 C     1.59180   1.68580  -1.07190     1     2    19     4
 C     0.52220   2.42230  -0.67840     2     1     3    15
 C    -0.75910   2.19970  -1.07340     3     2    10     7
 C     1.36400   0.43560  -1.69220     4     1    25     6
 C    -0.28990  -1.36740  -1.66390     5     8    13     6
 C     0.00820   0.01690  -1.95890     6     4     7     5
 C    -1.04880   0.96500  -1.69070     7    12     3     6
 C     0.65440  -2.22000  -1.04750     8    24    32     5
 C    -2.47770   1.36550   0.00590     9    10    17    12
 C    -1.58980   2.36500   0.00770    10     9     3    14
 C    -2.34500  -0.74510  -0.67030    11    12    13    28
 C    -2.23960   0.54190  -1.07900    12    11     9     7
 C    -1.50470  -1.74750  -1.04510    13    11    31     5
 C    -0.76090   2.22390   1.09400    14    15    10    18
 C     0.53190   2.46150   0.71440    15    16    14     2
 C     1.60640   1.70450   1.06160    16    15    19    22
 C    -2.28900   0.53670   1.08820    17    28     9    18
 C    -1.06710   0.97000   1.67000    18    14    17    21
 C     2.44610   1.47300  -0.00340    19    20    16     1
 C     2.84460   0.20700  -0.02140    20    19    25    23
 C    -0.01340   0.00640   1.90650    21    18    30    22
 C     1.34770   0.43730   1.63730    22    23    16    21
 C     2.28720  -0.45210   1.06680    23    27    20    22
 C     1.84110  -1.66460  -0.67660    24    25     8    27
 C     2.29010  -0.45190  -1.09130    25    24    20     4
 C     0.66890  -2.23810   1.07000    26    27    32    30
 C     1.85800  -1.69310   0.71360    27    26    23    24
 C    -2.40430  -0.77220   0.72000    28    29    17    11
 C    -1.55690  -1.78220   1.06720    29    28    31    30
 C    -0.31960  -1.38620   1.63330    30    29    26    21
 C    -1.24890  -2.61130   0.00450    31    32    29    13
 C     0.04690  -2.88040   0.00560    32    31     8    26
