    32
C32-D2-2                                                                        
 C    -1.26580  -1.98300   0.58440     1     5    20     4
 C     1.26920  -1.93930  -0.53550     2    23     3    19
 C     0.14550  -1.64880  -1.30890     3     2     4    30
 C    -1.14720  -1.79840  -0.80190     4     3     7     1
 C    -2.33050  -1.22630   0.97980     5     8     6     1
 C    -2.99990  -0.66660  -0.06350     6     5    14     7
 C    -2.18990  -0.94290  -1.16620     7    32     6     4
 C    -1.81700  -0.23410   1.75170     8     5     9    11
 C    -0.48650  -0.52530   2.03250     9     8    10    20
 C     0.47570   0.49700   2.01930    10    15     9    13
 C    -2.20200   0.97630   1.18460    11     8    12    14
 C    -1.15730   1.82880   0.82040    12    13    11    28
 C     0.13420   1.69810   1.33170    13    17    12    10
 C    -3.02000   0.69460   0.07960    14    29     6    11
 C     1.80770   0.21720   1.73220    15    16    18    10
 C     2.34030   1.21110   0.95290    16    22    17    15
 C     1.26520   1.95870   0.56770    17    16    13    26
 C     2.20500  -0.99860   1.19570    18    15    21    19
 C     1.16360  -1.87680   0.86630    19    20    18     2
 C    -0.12960  -1.74330   1.36950    20    19     1     9
 C     3.00320  -0.68590   0.08780    21    23    22    18
 C     3.01670   0.68430  -0.09250    22    16    21    27
 C     2.33090  -1.20160  -0.95790    23    21     2    24
 C     1.83380  -0.21860  -1.76700    24    23    27    30
 C    -0.13780   1.67190  -1.33120    25    28    26    31
 C     1.16220   1.82610  -0.82950    26    27    25    17
 C     2.22230   0.99150  -1.19480    27    22    24    26
 C    -1.28660   1.94140  -0.57470    28    29    25    12
 C    -2.36790   1.22340  -0.98650    29    14    28    32
 C     0.49500  -0.48560  -2.06760    30    24    31     3
 C    -0.50060   0.50820  -2.08510    31    32    30    25
 C    -1.83440   0.24950  -1.79200    32    29    31     7
