    32
C32-D3-6                                                                        
 C    -2.80970   0.00660   0.00420     1    14     4     2
 C    -2.36070  -1.23590  -0.40000     2    21     1     7
 C    -1.65970   0.29290  -1.85150     3     9     4     7
 C    -2.34300   0.96830  -0.86850     4     3     1     8
 C     0.30950  -2.19190  -0.67180     5    20    30     6
 C    -0.31290  -1.51150  -1.75980     6     7    12     5
 C    -1.63140  -1.06190  -1.57240     7     3     2     6
 C    -1.62750   1.87720  -0.11290     8     4    13    11
 C    -0.39170   0.67230  -2.20510     9     3    12    10
 C     0.31340   1.68720  -1.55120    10     9    29    11
 C    -0.31350   2.27610  -0.42060    11    19     8    10
 C     0.42330  -0.44450  -2.30340    12    32     9     6
 C    -1.69440   1.45930   1.21160    13    16    14     8
 C    -2.38510   0.26960   1.28610    14     1    13    15
 C    -1.64990  -0.82840   1.70750    15    14    21    18
 C    -0.41540   1.58120   1.69840    16    13    19    17
 C     0.30760   0.51020   2.24510    17    16    25    18
 C    -0.32880  -0.76380   2.19740    18    23    15    17
 C     0.40800   2.21740   0.77790    19    28    16    11
 C    -0.40410  -2.24810   0.53710    20    21    23     5
 C    -1.67510  -1.76560   0.66290    21    20     2    15
 C     1.65190  -1.56860   1.02280    22    23    24    30
 C     0.40130  -1.76050   1.53680    23    22    20    18
 C     2.34010  -0.39360   1.20290    24    26    22    25
 C     1.61210   0.65820   1.74960    25    28    24    17
 C     2.82430  -0.01110  -0.02340    26    24    31    27
 C     2.35910   1.27400  -0.25100    27    28    26    29
 C     1.68330   1.72110   0.85520    28    19    27    25
 C     1.62230   1.17570  -1.43090    29    27    32    10
 C     1.64070  -1.84510  -0.34250    30    22    31     5
 C     2.39850  -0.87970  -1.00880    31    32    26    30
 C     1.70240  -0.13100  -1.91930    32    31    12    29
