    32
C32-D3d-3                                                                       
 C    -1.83520  -0.54660   1.70120     1     6     4    21
 C     0.59900   0.85180   1.82150     2     5     3    20
 C    -0.59730   1.44760   1.40410     3     4     2    30
 C    -1.83170   0.82280   1.53000     4     8     1     3
 C     1.82120   1.18290   1.26230     5    22     2    32
 C    -2.66670  -1.03880   0.72200     6     9     1     7
 C    -3.22720  -0.00660  -0.00360     7    15     6     8
 C    -2.67360   1.15350   0.50540     8     4    31     7
 C    -1.83830  -1.80880  -0.04560     9     6    10    12
 C    -0.60790  -2.03350   0.55700    10     9    11    21
 C     0.60380  -2.08480  -0.15230    11    16    10    14
 C    -1.83310  -1.21260  -1.30680    12    15    13     9
 C    -0.60200  -0.90320  -1.86070    13    12    14    25
 C     0.60450  -1.48310  -1.44930    14    18    13    11
 C    -2.65710  -0.10890  -1.23430    15     7    28    12
 C     1.84460  -1.75180   0.37680    16    17    11    19
 C     2.69490  -1.14650  -0.52030    17    23    16    18
 C     1.83120  -0.84190  -1.54960    18    17    27    14
 C     1.82000  -0.96010   1.52000    19    22    20    16
 C     0.59080  -0.56300   2.02450    20    19    21     2
 C    -0.61110  -1.21130   1.73320    21     1    20    10
 C     2.65370   0.08990   1.20460    22    23     5    19
 C     3.25630   0.00500  -0.02360    23    22    17    24
 C     2.68950   1.05340  -0.71160    24    23    32    27
 C    -0.60450   0.52680  -1.96530    25    28    26    13
 C     0.59250   1.18630  -1.65620    26    27    25    29
 C     1.81840   0.53870  -1.65370    27    24    18    26
 C    -1.84010   0.95940  -1.49020    28    15    25    31
 C     0.61460   2.08540  -0.54410    29    32    30    26
 C    -0.61430   2.14100   0.15160    30    31    29     3
 C    -1.85490   1.81190  -0.38880    31     8    30    28
 C     1.85470   1.85090   0.04440    32    24     5    29
