    48
C48-C1-67                                                                       
 C    -2.97300   1.07350  -1.31860     1    26     5     7
 C     1.02440   1.53840  -1.95540     2     6     3    35
 C    -0.34320   1.44080  -2.10110     3     2    27     4
 C    -0.99820   0.23290  -2.49350     4     5     3    13
 C    -2.35840   0.11520  -2.10140     5     9     1     4
 C     1.88070   0.49830  -2.24660     6    48     2    12
 C    -3.80830   0.51960  -0.35850     7    16     8     1
 C    -3.64960  -0.83750  -0.49410     8     7     9    17
 C    -2.86110  -1.06260  -1.61070     9    10     5     8
 C    -1.96740  -2.02410  -1.37350    10     9    18    11
 C    -0.65860  -2.02940  -1.73170    11    10    42    13
 C     1.27150  -0.75830  -2.29360    12     6    13    46
 C    -0.11410  -0.91970  -2.42350    13    12    11     4
 C    -2.92520   0.39830   1.77640    14    20    16    15
 C    -2.64540  -0.94880   1.67930    15    14    17    23
 C    -3.49220   1.16410   0.79690    16     7    14    25
 C    -3.06120  -1.60770   0.52080    17    18    15     8
 C    -2.07600  -2.36180  -0.06520    18    10    21    17
 C    -0.81000   0.12610   2.51740    19    20    30    23
 C    -1.78220   1.00960   2.18100    20    19    14    28
 C    -0.81270  -2.62060   0.38970    21    18    22    42
 C    -0.39620  -2.05200   1.60620    22    24    21    23
 C    -1.32790  -1.14410   2.15860    23    22    15    19
 C     0.96380  -1.81390   1.73990    24    22    44    29
 C    -2.56200   2.14260   0.54490    25    26    16    28
 C    -2.24030   2.10630  -0.78340    26    27    25     1
 C    -0.94430   2.28520  -1.15610    27    26    33     3
 C    -1.49780   2.13000   1.44400    28    20    25    32
 C     1.43330  -0.60450   2.30880    29    36    30    24
 C     0.53680   0.46360   2.46450    30    19    29    31
 C     0.92900   1.70600   1.79320    31    38    32    30
 C    -0.15720   2.39190   1.12650    32    28    33    31
 C     0.09050   2.60530  -0.26550    33    35    27    32
 C     2.46130   2.06610  -0.09840    34    35    47    38
 C     1.31500   2.31900  -0.82000    35    33    34     2
 C     2.69930  -0.44020   1.86640    36    37    29    40
 C     3.21440   0.73880   1.45910    37    36    39    38
 C     2.24650   1.70360   1.24910    38    37    34    31
 C     3.99440   0.51600   0.37030    39    47    37    41
 C     3.07410  -1.41650   1.00190    40    36    41    44
 C     3.84930  -0.82530   0.04210    41    45    40    39
 C     0.10360  -2.59490  -0.68720    42    43    11    21
 C     1.46280  -2.37830  -0.52220    43    42    44    46
 C     1.94970  -2.17820   0.79080    44    40    43    24
 C     3.25470  -0.83770  -1.18390    45    41    48    46
 C     2.11500  -1.56580  -1.48880    46    45    12    43
 C     3.49610   1.28920  -0.62690    47    39    48    34
 C     3.09540   0.44350  -1.62450    48    45     6    47
