    48
C48-C1-22                                                                       
 C    -2.41170  -1.69020   1.45260     1     9     3     2
 C    -1.14770  -2.19810   1.43620     2     1     4    17
 C    -3.22780  -1.58650   0.37640     3     1    24    19
 C    -0.61550  -2.60880   0.22660     4     5     2    25
 C     0.73460  -2.50050  -0.02070     5     4    39     6
 C     1.69660  -2.01060   0.90840     6     5     7    16
 C     2.94080  -1.55910   0.38030     7    45     8     6
 C     3.13090  -1.42850  -1.00300     8    47    38     7
 C    -2.39520  -0.51210   2.09990     9     1    10    12
 C    -3.22980   0.36840   1.44690    10     9    11    19
 C    -2.61220   1.59000   1.16500    11    22    10    15
 C    -1.10690  -0.28990   2.53850    12     9    14    17
 C     0.86180   1.02510   2.28080    13    14    44    18
 C    -0.52160   0.96360   2.36840    14    13    12    15
 C    -1.28530   1.86440   1.59750    15    14    40    11
 C     1.08260  -1.33600   2.03970    16    17    18     6
 C    -0.30220  -1.41900   2.22320    17     2    16    12
 C     1.71180  -0.10850   2.33550    18    46    16    13
 C    -3.83600  -0.34000   0.38950    19    20     3    10
 C    -3.75170   0.13240  -0.89740    20    21    19    23
 C    -3.20470   1.35150  -1.13460    21    20    22    34
 C    -2.68630   2.09010  -0.11590    22    32    21    11
 C    -2.96700  -0.74270  -1.61770    23    24    20    26
 C    -2.65510  -1.83740  -0.85080    24    23     3    25
 C    -1.36230  -2.32020  -0.93080    25    24    29     4
 C    -1.95560  -0.08930  -2.31760    26    34    23    28
 C     0.48660   0.31830  -2.41860    27    31    28    36
 C    -0.65150  -0.58000  -2.45290    28    26    29    27
 C    -0.39450  -1.83620  -1.81420    29    39    25    28
 C     2.86170   0.48360  -1.75300    30    47    31    37
 C     1.77210  -0.20110  -2.22670    31    30    27    38
 C    -1.45920   2.54600  -0.44490    32    40    22    33
 C    -1.06210   1.99760  -1.64860    33    34    32    36
 C    -2.14730   1.23290  -1.99840    34    21    33    26
 C     1.28400   2.12140  -0.92370    35    37    36    41
 C     0.26930   1.65160  -1.85430    36    33    35    27
 C     2.59090   1.59390  -0.97800    37    30    42    35
 C     1.99470  -1.50340  -1.76070    38    39     8    31
 C     0.87590  -2.15020  -1.37740    39    38    29     5
 C    -0.58330   2.56140   0.58100    40    32    41    15
 C     0.78570   2.48100   0.40360    41    40    44    35
 C     3.48640   1.43490   0.08180    42    43    48    37
 C     2.79630   1.43810   1.24480    43    44    42    46
 C     1.55040   1.91970   1.43510    44    43    41    13
 C     3.67090  -0.51640   0.96130    45    46    48     7
 C     2.92170   0.21430   1.80700    46    45    43    18
 C     3.84650  -0.28440  -1.19070    47    48     8    30
 C     4.21930   0.27090  -0.04600    48    47    42    45
