    48
C48-C2-5                                                                        
 C    -4.30010  -0.28390  -0.13790     1     3     5    28
 C    -2.73140  -1.33360   1.11100     2     3     9    34
 C    -3.65850  -0.32070   1.06440     3     7     1     2
 C    -0.60430  -2.90490   0.25190     4    47    33     8
 C    -4.21060   1.01360  -0.54710     5     6     1    21
 C    -3.70670   1.78140   0.45070     6     5     7    11
 C    -3.28840   0.93280   1.43740     7     3     6    14
 C    -0.45260  -2.07170   1.35970     8    15     9     4
 C    -1.46350  -1.19450   1.73480     9     8     2    13
 C    -1.51650   2.13830   0.95790    10    12    11    14
 C    -2.53320   2.35570   0.04750    11     6    20    10
 C    -0.18770   2.27870   0.66900    12    10    18    23
 C    -1.02170   0.12820   2.09720    13    14    17     9
 C    -1.97310   1.12370   1.79980    14     7    10    13
 C     0.90710  -1.83680   1.50660    15     8    16    48
 C     1.39260  -0.60790   1.97950    16    15    45    17
 C     0.38160   0.41420   2.08000    17    13    16    18
 C     0.81360   1.65660   1.46860    18    19    12    17
 C     2.14930   1.82490   1.11880    19    46    18    24
 C    -2.15260   1.84290  -1.17740    20    21    11    22
 C    -3.15940   0.94070  -1.43550    21    27    20     5
 C    -0.81530   1.68430  -1.51420    22    20    23    26
 C     0.17970   2.33560  -0.72580    23    25    22    12
 C     2.54810   2.39540  -0.08840    24    40    25    19
 C     1.51110   2.19360  -0.98330    25    23    24    29
 C    -0.39250   0.41800  -2.08190    26    30    31    22
 C    -2.74680  -0.33880  -1.69010    27    21    31    28
 C    -3.56010  -1.15830  -0.88670    28     1    34    27
 C     1.95410   1.11950  -1.74610    29    35    25    30
 C     1.01080   0.12390  -2.06660    30    29    26    38
 C    -1.39870  -0.61030  -1.98450    31    32    27    26
 C    -0.89920  -1.83900  -1.52860    32    39    31    33
 C    -1.63860  -2.55500  -0.55710    33    34     4    32
 C    -2.80940  -2.02590  -0.13190    34    33    28     2
 C     3.25600   0.90810  -1.35920    35    36    29    40
 C     3.64390  -0.33440  -1.01370    36    35    37    43
 C     2.71870  -1.33570  -1.09170    37    36    42    38
 C     1.45460  -1.20500  -1.73150    38    39    37    30
 C     0.45370  -2.09690  -1.37670    39    32    38    47
 C     3.72630   1.79530  -0.41740    40    24    44    35
 C     3.55640  -1.14910   0.89010    41    43    42    45
 C     2.81310  -2.03890   0.13320    42    48    41    37
 C     4.34160  -0.28100   0.16100    43    44    36    41
 C     4.24110   1.01490   0.57770    44    43    40    46
 C     2.73860  -0.32990   1.68730    45    46    16    41
 C     3.16790   0.94400   1.42840    46    45    44    19
 C     0.62480  -2.93380  -0.27820    47     4    48    39
 C     1.63520  -2.57650   0.54300    48    47    42    15
