    48
C48-C1-8                                                                        
 C    -3.04410   2.10030  -0.46500     1     4     7    28
 C     0.16620   2.27710   0.87400     2     3    33    48
 C    -1.21220   2.39580   0.72470     3     4     2    29
 C    -1.78260   2.53650  -0.51360     4     1     3    43
 C    -3.81390   0.11420  -0.82080     5     6     7    30
 C    -3.31750  -1.11880  -1.01060     6     5     8    10
 C    -3.16800   1.14820  -1.41590     7     1     5    21
 C    -3.18850  -1.72960   0.20570     8     9     6    14
 C    -2.07230  -2.48060   0.12620     9     8    11    15
 C    -2.15440  -1.36670  -1.74860    10    11     6    22
 C    -1.47920  -2.33970  -1.07850    11    26     9    10
 C    -2.24400  -0.62100   2.00130    12    31    13    14
 C    -1.13600  -1.49740   1.99830    13    15    38    12
 C    -3.38150  -0.76560   1.17280    14     8    30    12
 C    -1.05250  -2.47820   1.02340    15     9    13    16
 C     0.16710  -2.61070   0.36280    16    17    15    26
 C     1.39620  -2.16850   0.84000    17    16    18    37
 C     2.44300  -1.97420  -0.08010    18    39    17    20
 C     2.94850  -0.67420  -1.74150    19    41    20    27
 C     2.04540  -1.64370  -1.40570    20    19    25    18
 C    -1.91600   0.96910  -2.01570    21    43     7    22
 C    -1.34650  -0.30450  -2.24850    22    21    10    24
 C     0.95430   0.71240  -2.08410    23    27    44    24
 C     0.09100  -0.44630  -2.27100    24    22    23    25
 C     0.71390  -1.66620  -1.76480    25    20    26    24
 C    -0.14140  -2.44910  -1.01220    26    11    25    16
 C     2.33280   0.55890  -1.88200    27    19    45    23
 C    -3.35970   1.60930   0.75780    28     1    30    29
 C    -2.19000   1.72340   1.49500    29    31    28     3
 C    -3.90380   0.36500   0.55130    30    28    14     5
 C    -1.65100   0.64240   2.17090    31    29    32    12
 C    -0.28530   0.50410   2.35820    32    31    38    33
 C     0.68030   1.42090   1.90370    33    34    32     2
 C     2.00940   1.05050   1.84680    34    46    33    36
 C     3.55240  -0.39290   1.21510    35    39    40    36
 C     2.39050  -0.30610   1.95120    36    35    37    34
 C     1.34790  -1.24040   1.94180    37    36    38    17
 C     0.05380  -0.85640   2.32650    38    13    32    37
 C     3.58890  -1.24550   0.14620    39    35    41    18
 C     3.98890   0.81090   0.72580    40    42    46    35
 C     4.03790  -0.54800  -0.94140    41    42    19    39
 C     4.22400   0.75100  -0.61080    42    41    40    45
 C    -1.05200   1.94910  -1.51480    43     4    44    21
 C     0.31690   1.84550  -1.47150    44    43    23    48
 C     3.13120   1.41610  -1.12680    45    42    47    27
 C     2.92410   1.61370   0.99200    46    40    34    47
 C     2.36920   2.07600  -0.18340    47    46    45    48
 C     1.01730   2.33560  -0.30040    48    47    44     2
