    48
C48-C1-154                                                                      
 C    -2.65570   1.61700   1.15590     1    31     2     4
 C    -3.21560   0.48510   0.62490     2     1     3    17
 C    -2.87230  -0.72970   1.17380     3    13     2     6
 C    -1.51870   1.56470   1.95030     4     1    34     5
 C    -1.00890   0.32830   2.43630     5     4     6    11
 C    -1.77090  -0.82340   2.06690     6     8     3     5
 C     0.21720  -2.15900   1.92450     7     8    21    12
 C    -1.14230  -2.04540   1.81010     8     7    14     6
 C     2.47160   1.07030   1.58560     9    40    47    10
 C     1.22750   1.27990   2.13960    10     9    33    11
 C     0.42340   0.18370   2.56370    11    10    12     5
 C     1.03300  -1.09310   2.33210    12     7    48    11
 C    -2.79720  -1.82130   0.34920    13    14    15     3
 C    -1.77120  -2.62010   0.72520    14    13     8    19
 C    -2.69960  -1.66850  -0.99970    15    20    13    16
 C    -2.73040  -0.42020  -1.54310    16    15    17    23
 C    -3.15670   0.65990  -0.79250    17    22    16     2
 C     0.32160  -3.07960  -0.26820    18    19    21    27
 C    -1.04170  -3.03430  -0.38310    19    18    20    14
 C    -1.61210  -2.34790  -1.42590    20    15    19    29
 C     0.92560  -2.80940   0.93570    21    45    18     7
 C    -2.58020   1.88720  -0.95770    22    31    17    26
 C    -1.54700  -0.30450  -2.31430    23    16    25    29
 C     0.55500   0.83610  -2.43520    24    25    30    35
 C    -0.83990   0.92460  -2.35980    25    24    26    23
 C    -1.37850   2.02110  -1.65350    26    22    25    37
 C     1.16080  -2.44390  -1.21860    27    18    42    28
 C     0.55010  -1.60380  -2.21820    28    30    29    27
 C    -0.84980  -1.54860  -2.24960    29    20    28    23
 C     1.24530  -0.40600  -2.42830    30    44    28    24
 C    -2.44010   2.53190   0.19730    31    32    22     1
 C    -1.24330   3.07990   0.29700    32    31    34    37
 C     0.67720   2.39840   1.50520    33    34    10    38
 C    -0.66230   2.56990   1.45020    34    33    32     4
 C     1.39390   1.78770  -1.79110    35    41    36    24
 C     0.84810   2.71640  -0.87330    36    37    35    38
 C    -0.53190   2.87430  -0.87990    37    36    32    26
 C     1.51530   2.67540   0.39610    38    40    33    36
 C     3.30040   1.23580  -0.39880    39    40    41    46
 C     2.66170   1.94160   0.55150    40    39     9    38
 C     2.57510   1.12970  -1.53680    41    44    39    35
 C     2.36200  -2.05540  -0.55360    42    43    45    27
 C     3.08610  -0.93990  -0.91550    43    44    42    46
 C     2.46830  -0.16650  -1.86810    44    41    30    43
 C     2.11930  -2.24890   0.79600    45    21    48    42
 C     3.56210  -0.03980   0.04590    46    39    47    43
 C     3.05330  -0.15100   1.34260    47    48     9    46
 C     2.31090  -1.23570   1.71450    48    47    45    12
