    48
C48-C1-93                                                                       
 C    -3.20610  -0.58060  -1.35990     1     2    27     6
 C    -3.28220  -1.36640  -0.27330     2     7     1     3
 C    -3.32510  -0.59460   0.86220     3     2    29    10
 C    -1.03180  -1.58520  -2.01930     4     6     5    13
 C    -1.24980  -2.46180  -0.90810     5     7     8     4
 C    -2.07590  -0.63890  -2.18220     6    19     1     4
 C    -2.33930  -2.29510  -0.07650     7     2    11     5
 C    -0.17380  -2.79270  -0.08130     8     9     5    41
 C     1.12270  -2.58520  -0.44360     9     8    44    12
 C    -2.40630  -1.10190   1.78170    10    11     3    47
 C    -1.87860  -2.24090   1.19660    11    41     7    10
 C     1.38290  -1.87050  -1.62520    12    15     9    13
 C     0.33090  -1.19200  -2.30300    13    12     4    14
 C     0.65370   0.22280  -2.55680    14    18    17    13
 C     2.62770  -1.33760  -1.44590    15    16    12    45
 C     2.96270  -0.08250  -1.79090    16    15    25    17
 C     1.91800   0.72170  -2.17160    17    16    14    20
 C    -0.42500   1.09690  -2.41170    18    19    14    22
 C    -1.70880   0.66630  -2.33270    19    26    18     6
 C     2.01720   1.86030  -1.32190    20    21    24    17
 C     0.85070   2.52310  -0.92930    21    20    22    23
 C    -0.36720   2.25320  -1.58940    22    21    28    18
 C     0.70680   2.75350   0.46060    23    32    38    21
 C     3.06830   1.57620  -0.44040    24    25    37    20
 C     3.69000   0.43710  -0.78690    25    24    16    40
 C    -2.49130   1.47440  -1.57720    26    27    19    28
 C    -3.38520   0.71230  -0.90910    27    26     1    29
 C    -1.65860   2.39180  -1.01630    28    26    31    22
 C    -3.38130   0.73370   0.48130    29     3    30    27
 C    -2.50830   1.60390   1.12160    30    29    46    31
 C    -1.72060   2.52370   0.36380    31    32    28    30
 C    -0.54550   2.67710   1.00700    32    34    31    23
 C     0.77290   1.49380   2.28160    33    34    35    38
 C    -0.51270   1.88490   2.08740    34    32    33    46
 C     0.97480   0.15770   2.57390    35    33    39    48
 C     3.07310   0.19720   1.30630    36    40    39    37
 C     2.75100   1.51980   0.90040    37    38    24    36
 C     1.60420   2.11900   1.34780    38    37    33    23
 C     2.09200  -0.48810   2.05110    39    35    43    36
 C     3.71160  -0.44390   0.24360    40    25    45    36
 C    -0.57300  -2.58300   1.25000    41    11    42     8
 C     0.32380  -1.89570   2.04190    42    41    43    48
 C     1.66130  -1.77250   1.68310    43    42    44    39
 C     2.14600  -2.27920   0.46820    44    45    43     9
 C     3.12320  -1.60540  -0.18520    45    44    40    15
 C    -1.65410   1.13260   2.15660    46    34    47    30
 C    -1.51310  -0.24590   2.45770    47    10    46    48
 C    -0.15320  -0.69160   2.61720    48    35    42    47
