    48
C48-D2-169                                                                      
 C     1.53530  -2.56530   0.67720     1     2    26     5
 C     0.22160  -2.88090   0.61770     2     7     1    23
 C     3.49280  -0.68880   0.13900     3    27     4     6
 C     2.90680  -1.38070  -0.90580     4    14     5     3
 C     1.94590  -2.34680  -0.66830     5     4    10     1
 C     3.50140   0.66980  -0.12440     6    45     3    30
 C    -0.22250  -2.90050  -0.65210     7     2     8    10
 C    -1.53710  -2.57780  -0.67580     8     7     9    17
 C    -1.96010  -1.70610  -1.66540     9    18     8    13
 C     0.77950  -2.42740  -1.46030    10     7     5    12
 C     1.34830  -0.33340  -2.44620    11    14    12    42
 C     0.41620  -1.38300  -2.35710    12    11    13    10
 C    -0.94980  -1.02930  -2.40580    13    12    19     9
 C     2.56920  -0.40150  -1.80420    14    45     4    11
 C    -2.89150  -1.36210   0.89930    15    24    17    16
 C    -3.49520  -0.65710  -0.13680    16    18    39    15
 C    -1.94140  -2.33740   0.65910    17    15    23     8
 C    -2.93420  -0.80840  -1.37080    18    20     9    16
 C    -1.35730   0.33230  -2.45410    19    20    43    13
 C    -2.57970   0.41250  -1.81860    20    18    38    19
 C     0.95400  -1.02370   2.40810    21    22    33    26
 C    -0.41480  -1.37930   2.34800    22    25    21    23
 C    -0.77360  -2.41170   1.44260    23     2    17    22
 C    -2.56880  -0.38770   1.81440    24    40    15    25
 C    -1.34410  -0.32630   2.45460    25    24    22    31
 C     1.96280  -1.69970   1.66840    26    27     1    21
 C     2.94430  -0.80920   1.38190    27    28    26     3
 C     2.58510   0.41370   1.83470    28    27    30    33
 C     1.96080   2.33390   0.64960    29    30    34    48
 C     2.92840   1.38280   0.91740    30    28    29     6
 C    -0.94880   1.03490   2.42020    31    32    25    35
 C     0.42300   1.37430   2.36010    32    33    31    34
 C     1.36060   0.33650   2.47520    33    28    32    21
 C     0.77560   2.38880   1.42840    34    37    29    32
 C    -1.97590   1.69290   1.68110    35    40    36    31
 C    -1.53470   2.53040   0.66500    36    37    35    41
 C    -0.22180   2.85230   0.61220    37    47    36    34
 C    -2.94540   1.37390  -0.89990    38    20    41    39
 C    -3.54460   0.69000   0.15590    39    40    16    38
 C    -2.99100   0.83100   1.39030    40    24    39    35
 C    -1.95650   2.32060  -0.67390    41    38    44    36
 C     0.96060   1.03210  -2.40130    42    43    11    46
 C    -0.41610   1.37240  -2.34950    43    19    42    44
 C    -0.77400   2.41570  -1.44660    44    47    41    43
 C     2.95280   0.82230  -1.36910    45    14    46     6
 C     1.97460   1.71900  -1.67300    46    45    48    42
 C     0.23410   2.90210  -0.65050    47    37    48    44
 C     1.54400   2.59170  -0.68710    48    47    46    29
