    48
C48-C1-49                                                                       
 C    -0.38090  -2.82050  -0.89580     1     5    32     2
 C     0.79690  -2.31930  -1.33080     2     1     9    30
 C     3.14010  -0.98210  -1.14550     3     4    28    10
 C     3.78540   0.04490  -0.58290     4     3    11    13
 C    -1.55750  -2.17540  -1.02260     5     1     7    36
 C    -2.75480  -0.21180  -1.35450     6    46     7    37
 C    -1.62350  -0.94960  -1.69250     7     6     5     8
 C    -0.36750  -0.33070  -2.10580     8     9    48     7
 C     0.86190  -1.06910  -1.97650     9    10     2     8
 C     2.08750  -0.42150  -1.87180    10     9     3    43
 C     3.54070  -0.05460   0.73730    11    12     4    17
 C     3.08890   1.15090   1.11630    12    11    18    14
 C     3.33500   1.25380  -1.00690    13    14     4    43
 C     3.11790   2.06670   0.05870    14    27    13    12
 C     0.71410  -2.21130   1.55790    15    16    29    23
 C     1.61260  -1.15410   1.75920    16    15    17    19
 C     2.82550  -1.19300   0.98970    17    11    28    16
 C     1.88470   1.24320   1.75250    18    25    12    19
 C     1.07280   0.14350   2.11380    19    18    16    21
 C    -0.91970   1.60790   1.67730    20    24    26    21
 C    -0.36920   0.33180   2.13620    21    22    19    20
 C    -1.23980  -0.80160   1.95650    22    23    34    21
 C    -0.68140  -2.05970   1.69300    23    22    15    31
 C    -2.22280   1.72220   1.20140    24    33    20    42
 C     1.29880   2.32480   1.19400    25    26    18    27
 C    -0.01340   2.49170   1.09160    26    25    20    40
 C     1.99000   2.79380   0.11730    27    14    25    45
 C     2.79810  -1.95060  -0.21150    28    30     3    17
 C     0.95430  -3.24490   0.63090    29    32    30    15
 C     1.74900  -2.77700  -0.38720    30    28    29     2
 C    -1.33430  -3.03620   0.91090    31    32    36    23
 C    -0.30060  -3.53970   0.24410    32    31    29     1
 C    -3.03720   0.62820   1.16970    33    34    24    38
 C    -2.53810  -0.60880   1.43780    34    33    22    35
 C    -3.16070  -1.46570   0.49650    35    36    37    34
 C    -2.33760  -2.48080   0.12610    36    35    31     5
 C    -3.71880  -0.53430  -0.36360    37    38    35     6
 C    -3.97360   0.69260   0.17320    38    39    37    33
 C    -3.51910   1.77060  -0.48600    39    38    42    46
 C    -0.24790   3.09630  -0.16740    40    41    45    26
 C    -1.49040   2.84110  -0.64450    41    40    42    47
 C    -2.60050   2.56630   0.12530    42    39    41    24
 C     2.17780   0.97440  -1.76590    43    10    13    44
 C     0.98670   1.74980  -1.72790    44    43    48    45
 C     0.97020   2.86340  -0.81160    45    27    40    44
 C    -2.66320   1.15040  -1.36290    46     6    47    39
 C    -1.45770   1.76620  -1.55860    47    46    41    48
 C    -0.27970   1.11990  -1.99080    48    47    44     8
