    48
C48-C1-114                                                                      
 C    -3.72070  -0.46310  -0.56160     1     3    16    31
 C    -2.35300  -2.31290  -0.27270     2     3     5    29
 C    -3.36230  -1.55160   0.15240     3     2     1     8
 C    -0.23060  -2.75040   0.27790     4     5    14    36
 C    -1.46320  -2.50590   0.72690     5     4     2     7
 C     1.99960  -2.16280  -1.09000     6    35    48    13
 C    -1.77400  -1.64780   1.74750     7     5     8     9
 C    -3.00490  -1.13770   1.41750     8    17     7     3
 C    -0.68390  -0.88190   2.24100     9     7    10    18
 C     0.66630  -1.36210   2.00770    10    12     9    14
 C     3.00700  -0.66560   1.59970    11    15    45    12
 C     1.75100  -0.47240   2.17130    12    11    27    10
 C     2.13050  -2.34390   0.27920    13    15     6    14
 C     0.91750  -2.40530   0.99620    14     4    13    10
 C     3.18640  -1.54500   0.59780    15    11    13    46
 C    -3.82470   0.58080   0.31000    16    20     1    17
 C    -3.23190   0.17480   1.47600    17     8    16    19
 C    -0.91420   0.57560   2.28090    18    28    19     9
 C    -2.19640   1.02340   1.79840    19    17    23    18
 C    -3.19720   1.67180  -0.09590    20    16    23    21
 C    -2.61790   1.34370  -1.33320    21    22    20    31
 C    -1.42140   1.90640  -1.66300    22    25    21    32
 C    -2.28600   2.08950   0.87590    23    24    20    19
 C    -1.13360   2.69960   0.52170    24    23    25    26
 C    -0.79570   2.76220  -0.80680    25    37    22    24
 C     0.08110   2.49270   1.17040    26    24    39    28
 C     1.52850   0.91910   2.17790    27    28    44    12
 C     0.23040   1.41730   2.09970    28    27    26    18
 C    -1.59060  -2.07740  -1.39500    29     2    36    30
 C    -1.74080  -0.81640  -2.05820    30    29    31    33
 C    -2.83740  -0.02760  -1.57140    31    21     1    30
 C    -0.37460   1.19960  -2.26910    32    22    33    38
 C    -0.49340  -0.19330  -2.46580    33    32    34    30
 C     0.74770  -0.87030  -2.35610    34    35    33    43
 C     0.80010  -2.10590  -1.71080    35    36     6    34
 C    -0.31750  -2.56810  -1.12780    36    35    29     4
 C     0.51450   2.72220  -0.94300    37    25    39    38
 C     0.86900   1.78110  -1.88600    38    37    42    32
 C     1.14220   2.71860   0.25530    39    40    37    26
 C     2.35820   2.14630   0.36980    40    39    44    41
 C     2.97670   1.41790  -0.68930    41    47    40    42
 C     2.07970   1.09370  -1.77650    42    38    43    41
 C     2.01800  -0.27130  -2.12160    43    48    42    34
 C     2.63800   1.44130   1.50850    44    45    40    27
 C     3.52780   0.51450   1.20830    45    44    11    47
 C     3.71400  -0.84020  -0.48530    46    48    47    15
 C     3.83590   0.46180  -0.11560    47    46    45    41
 C     2.84480  -1.17300  -1.46930    48    46     6    43
