    48
C48-C1-117                                                                      
 C     3.53360  -0.32800  -0.73970     1     2    26     6
 C     3.15960  -1.58070  -0.49360     2     1     3    17
 C     2.15010  -2.12440  -1.17570     3     2     8     4
 C     1.31330  -1.41650  -2.01850     4     3    15     5
 C     1.57610  -0.04460  -2.24510     5     4     6    12
 C     2.78960   0.45560  -1.63300     6    36     1     5
 C     0.09080  -2.81740  -0.75820     7     8     9    15
 C     1.35900  -2.79600  -0.31680     8     7     3    20
 C    -0.94320  -2.81390   0.11320     9    10     7    21
 C    -2.14540  -2.35760  -0.23980    10     9    43    16
 C     0.51860   2.07590  -1.69900    11    35    41    12
 C     0.37830   0.78920  -2.32670    12    11    13     5
 C    -0.97480   0.24380  -2.31820    13    46    14    12
 C    -1.16610  -1.18100  -2.08140    14    15    16    13
 C     0.01670  -1.90620  -1.85390    15     4    14     7
 C    -2.34650  -1.59020  -1.38580    16    48    10    14
 C     2.86170  -1.71250   0.83710    17     2    20    18
 C     3.06950  -0.47500   1.41250    18    17    26    19
 C     1.97120   0.03230   2.11630    19    18    27    23
 C     1.70440  -2.44880   0.98590    20    17     8    22
 C    -0.68010  -2.31630   1.41870    21    22    31     9
 C     0.64000  -2.00900   1.79380    22    21    20    23
 C     0.79670  -0.70960   2.33720    23    19    33    22
 C     3.22660   1.61050   0.25260    24    26    36    25
 C     2.24660   2.18620   1.05220    25    38    24    27
 C     3.66080   0.35150   0.45320    26    24     1    18
 C     1.57330   1.36960   1.96190    27    25    19    28
 C     0.17980   1.43860   2.12490    28    27    33    29
 C    -0.66440   2.30690   1.38840    29    30    37    28
 C    -1.99430   1.94620   1.20060    30    29    39    34
 C    -1.82960  -1.55170   1.71270    31    43    21    32
 C    -1.64770  -0.22210   2.18140    32    33    31    34
 C    -0.31290   0.15320   2.43470    33    23    32    28
 C    -2.56760   0.73630   1.66990    34    45    30    32
 C     1.66980   2.40280  -1.05180    35    36    38    11
 C     2.76950   1.68250  -1.04210    36    35     6    24
 C     0.01720   2.90040   0.30300    37    38    41    29
 C     1.36630   2.82050   0.20370    38    37    35    25
 C    -2.64670   2.18490  -0.01360    39    42    40    30
 C    -1.78080   2.19670  -1.08980    40    41    39    46
 C    -0.52290   2.62180  -0.96620    41    40    11    37
 C    -3.58410   1.26870  -0.19060    42    39    45    47
 C    -2.82540  -1.78670   0.77630    43    44    10    31
 C    -3.66760  -0.85970   0.29950    44    43    45    48
 C    -3.64840   0.38990   0.83450    45    42    44    34
 C    -2.07160   1.05590  -1.84800    46    47    40    13
 C    -3.25670   0.56650  -1.32040    47    48    42    46
 C    -3.36350  -0.73520  -1.05050    48    47    16    44
