    48
C48-D3-188                                                                      
 C     2.47450  -0.00840   1.85680     1    24     4     9
 C    -0.20640   2.84940   1.35840     2    47    34     3
 C     0.98440   2.25450   1.68460     3     2    25     8
 C     2.57510  -1.27100   1.35740     4     5     1    14
 C     3.06320  -1.18630   0.12100     5     4    15     6
 C     3.26110   0.15540  -0.11940     6     7     9     5
 C     2.81440   0.36920  -1.35400     7     6    18    10
 C     2.01260   2.08040   0.68960     8     9     3    11
 C     2.83360   0.94690   0.91090     9     6     1     8
 C     2.00230   1.42000  -1.68190    10     7    42    11
 C     1.62110   2.40640  -0.69890    11    48    10     8
 C     0.79830  -2.77380   0.69000    12    20    14    13
 C     1.27520  -2.60150  -0.69890    13    15    16    12
 C     1.46850  -1.99140   1.69460    14     4    23    12
 C     2.41530  -1.78730  -0.92950    15     5    18    13
 C     0.23850  -2.45050  -1.68780    16    17    44    13
 C    -1.07240  -2.61650  -1.34800    17    19    32    16
 C     2.36280  -0.79240  -1.89730    18    43     7    15
 C    -1.50090  -2.87520  -0.11710    19    17    20    31
 C    -0.59740  -2.89340   0.91410    20    19    21    12
 C    -1.25100  -2.13040   1.87030    21    22    28    20
 C    -0.61590  -1.23290   2.64980    22    21    23    26
 C     0.75710  -1.17050   2.61470    23    22    24    14
 C     1.38190   0.08300   2.64720    24     1    25    23
 C     0.63400   1.23240   2.61110    25    24    27     3
 C    -1.40320  -0.06810   2.60990    26    27    22    38
 C    -0.76720   1.15550   2.64340    27    34    26    25
 C    -2.41050  -1.61000   1.37460    28    31    21    38
 C    -2.22480   1.01200  -1.67070    29    39    41    30
 C    -2.88590   0.20240  -0.67910    30    33    29    37
 C    -2.57800  -2.06370   0.13440    31    28    19    33
 C    -1.85940  -1.64470  -1.87330    32    40    17    33
 C    -2.75630  -1.19430  -0.91540    33    31    32    30
 C    -1.25280   2.14350   1.86920    34    27     2    35
 C    -2.23930   1.98490   0.90650    35    36    34    37
 C    -1.75370   2.75740  -0.11780    36    39    35    47
 C    -2.81740   0.69950   0.71300    37    35    38    30
 C    -2.48740  -0.28300   1.70900    38    28    26    37
 C    -1.71990   2.23790  -1.34110    39    36    45    29
 C    -1.08060  -0.86690  -2.65850    40    32    41    44
 C    -1.28600   0.49120  -2.60780    41    40    46    29
 C     1.08610   0.86320  -2.62100    42    46    43    10
 C     1.29910  -0.52570  -2.68390    43    18    44    42
 C     0.23050  -1.38710  -2.63630    44    43    40    16
 C    -0.48080   2.43450  -1.86470    45    46    39    48
 C    -0.19280   1.37250  -2.64320    46    45    42    41
 C    -0.50270   3.26960   0.12740    47     2    48    36
 C     0.35240   3.00540  -0.90850    48    47    45    11
