    48
C48-C1-174                                                                      
 C    -1.19120  -2.75310   0.41890     1     2    28    13
 C    -2.30200  -2.30550  -0.22360     2     5     1    19
 C     2.43030  -1.46000   1.41680     3    14     4    32
 C     1.24230  -2.11920   1.55020     4     3    29    12
 C    -3.11860  -1.55110   0.54680     5     2     6     8
 C    -3.70940  -0.57070  -0.20200     6     7     5    18
 C    -3.68520   0.73190   0.16930     7     6    10    27
 C    -2.33180  -1.25590   1.65000     8     9     5    13
 C    -2.25570   0.07360   2.01840     9     8    10    11
 C    -2.97310   1.02070   1.30190    10    25     7     9
 C    -0.99500   0.61500   2.34740    11    45     9    16
 C     0.10210  -1.52750   2.10370    12     4    13    16
 C    -1.15390  -1.99530   1.62800    13     8    12     1
 C     2.61510  -0.14390   1.72310    14     3    46    15
 C     1.48130   0.58050   2.20010    15    14    17    16
 C     0.22470  -0.11620   2.45270    16    11    15    12
 C     1.41940   1.92030   1.67690    17    48    44    15
 C    -3.00570  -0.62320  -1.39110    18    20    19     6
 C    -2.14640  -1.70330  -1.46680    19    18     2    23
 C    -2.60350   0.63970  -1.74790    20    18    21    27
 C    -1.32750   0.77120  -2.25810    21    20    42    22
 C    -0.47090  -0.32640  -2.46870    22    33    21    23
 C    -0.86390  -1.61800  -2.03210    23    19    24    22
 C     0.19450  -2.36360  -1.48510    24    23    35    28
 C    -2.13970   2.05440   1.10370    25    10    45    26
 C    -2.15220   2.40680  -0.24670    26    27    25    41
 C    -3.06410   1.51450  -0.78230    27     7    20    26
 C    -0.01340  -2.98360  -0.22500    28    29     1    24
 C     1.17310  -2.88540   0.38900    29    28    30     4
 C     2.19930  -2.52480  -0.40980    30    32    29    35
 C     3.61740  -0.64830  -0.18640    31    32    46    36
 C     3.10330  -1.79340   0.25770    32    31    30     3
 C     0.86130   0.10360  -2.41430    33    22    37    34
 C     1.94520  -0.71800  -1.99450    34    35    33    36
 C     1.55810  -1.99980  -1.53220    35    30    24    34
 C     3.03130  -0.06630  -1.32380    36    39    31    34
 C     0.82100   1.48040  -2.11260    37    38    42    33
 C     1.85950   2.02200  -1.40440    38    39    37    43
 C     2.94700   1.28060  -1.04600    39    38    47    36
 C     0.20400   2.94800   0.04710    40    43    41    44
 C    -0.89490   2.68950  -0.80530    41    26    40    42
 C    -0.51070   1.84810  -1.89740    42    37    21    41
 C     1.51110   2.74690  -0.28680    43    48    40    38
 C     0.16950   2.45810   1.37950    44    45    17    40
 C    -0.98610   1.91460   1.80650    45    44    25    11
 C     3.54350   0.34370   0.78360    46    47    31    14
 C     3.30880   1.55060   0.25420    47    46    48    39
 C     2.33080   2.33990   0.72140    48    47    43    17
