    48
C48-C1-3                                                                        
 C     4.07570  -0.71310   0.88120     1     5     2    31
 C     2.95080  -1.28510   1.41300     2     1     7    33
 C    -1.20960  -1.91460   1.44300     3    26     4    40
 C     0.15910  -1.77080   1.53360     4     3    34     6
 C     4.22250  -1.03310  -0.43020     5     9     1     8
 C     0.97320  -2.24380   0.42980     6     7    10     4
 C     2.33020  -2.01720   0.42870     7     2     6     8
 C     3.07310  -1.75210  -0.70300     8     7     5    11
 C     4.05630   0.08630  -1.16710     9     5    12    14
 C     0.27180  -2.16510  -0.82870    10    27    28     6
 C     2.28630  -1.17110  -1.68540    11    12     8    28
 C     2.93370   0.02100  -1.93120    12     9    23    11
 C     2.64740   1.78940  -0.72440    13    15    14    23
 C     3.78070   1.11140  -0.29550    14     9    31    13
 C     1.69070   2.26070   0.13350    15    16    13    29
 C     0.39330   2.49830  -0.20250    16    15    37    18
 C    -1.54190   1.90350  -1.44040    17    18    41    24
 C    -0.15780   2.00770  -1.41880    18    17    22    16
 C    -1.96150  -1.51100  -1.58910    19    27    44    20
 C    -1.38230  -0.34020  -2.13600    20    19    24    21
 C     0.04480  -0.22640  -2.21730    21    20    28    22
 C     0.70030   1.06260  -2.04620    22    23    18    21
 C     2.08740   1.08680  -1.81620    23    12    22    13
 C    -2.22670   0.78640  -1.94520    24    17    46    20
 C    -3.03510  -2.11660   0.21630    25    26    44    48
 C    -1.77850  -2.51350   0.34530    26    25    27     3
 C    -1.08390  -2.26860  -0.79830    27    10    26    19
 C     0.90600  -1.31260  -1.78010    28    11    10    21
 C     1.67980   1.72260   1.43440    29    30    32    15
 C     2.65070   0.81600   1.75610    30    29    31    33
 C     3.78820   0.62160   1.00160    31     1    30    14
 C     0.34280   1.63310   1.77560    32    37    29    35
 C     2.08610  -0.42970   2.05730    33     2    30    34
 C     0.70210  -0.63130   2.20790    34    33     4    35
 C    -0.25140   0.44860   2.30040    35    32    39    34
 C    -1.75730   2.24970   0.78650    36    37    41    38
 C    -0.43020   2.36290   0.90230    37    36    32    16
 C    -2.45950   1.28560   1.51150    38    36    42    39
 C    -1.66870   0.27270   2.14350    39    40    38    35
 C    -2.19120  -1.01650   1.89350    40     3    48    39
 C    -2.37900   2.36660  -0.42700    41    43    36    17
 C    -3.63770   1.05100   0.77910    42    43    47    38
 C    -3.51610   1.68860  -0.41880    43    41    46    42
 C    -3.23070  -1.53820  -0.98560    44    25    45    19
 C    -3.97010  -0.41820  -0.79970    45    44    46    47
 C    -3.51540   0.73140  -1.36890    46    43    45    24
 C    -4.06280  -0.23040   0.59340    47    48    42    45
 C    -3.38700  -1.24350   1.19190    48    25    47    40
