    48
C48-C1-99                                                                       
 C     3.79330  -0.07550  -0.74680     1     5     4    30
 C     1.18480   1.84650  -1.65650     2     3    33    16
 C     2.47960   1.48660  -1.45680     3     4     2    28
 C     2.94470   0.26980  -1.75440     4     3     1    18
 C     3.37200  -1.28280  -0.34100     5     1     6     8
 C     3.01910  -1.18370   1.00350     6     7     5    22
 C     1.93410  -1.89260   1.46360     7    10     6    23
 C     2.37380  -1.74060  -1.21860     8     9    18     5
 C     1.36510  -2.51850  -0.75000     9     8    10    11
 C     1.24140  -2.70480   0.60610    10    27     7     9
 C     0.05770  -2.44750  -1.23360    11     9    42    13
 C    -1.72150  -1.07240  -2.03190    12    45    13    19
 C    -0.35220  -1.38840  -2.10570    13    12    11    17
 C    -1.48610   2.30770  -1.02470    14    46    34    15
 C    -1.17860   1.28240  -1.98920    15    19    16    14
 C     0.20090   0.98350  -2.23680    16     2    15    17
 C     0.65290  -0.40490  -2.38450    17    18    13    16
 C     2.02070  -0.68420  -2.07350    18     4     8    17
 C    -2.18020   0.27220  -2.04680    19    48    12    15
 C     2.04740   0.75900   1.98830    20    21    31    22
 C     0.95980   0.01770   2.48130    21    23    38    20
 C     3.14370   0.19030   1.30740    22    30    20     6
 C     0.90890  -1.33810   2.23570    23    21     7    24
 C    -0.32970  -1.91230   1.92350    24    27    23    25
 C    -1.56190  -1.22890   1.94200    25    24    26    37
 C    -2.51890  -1.63550   0.95670    26    40    43    25
 C    -0.05030  -2.79680   0.90100    27    10    42    24
 C     2.99020   1.90790  -0.25350    28    30    29     3
 C     1.91180   2.50060   0.34070    29    28    33    31
 C     3.72290   0.86710   0.23370    30     1    28    22
 C     1.46970   1.96890   1.56580    31    32    20    29
 C     0.12390   1.98480   1.89380    32    35    31    38
 C     0.86390   2.66560  -0.57610    33    34     2    29
 C    -0.43740   2.78050  -0.23460    34    33    35    14
 C    -0.82170   2.57490   1.08880    35    36    32    34
 C    -2.08920   2.15050   1.03500    36    35    46    39
 C    -1.53730   0.18120   2.27850    37    39    38    25
 C    -0.23090   0.74400   2.46500    38    21    32    37
 C    -2.52030   0.99460   1.65610    39    41    36    37
 C    -3.49240  -0.79240   0.46690    40    41    44    26
 C    -3.47770   0.51290   0.79580    41    40    39    47
 C    -0.83320  -2.83250  -0.20260    42    43    27    11
 C    -2.10070  -2.38960  -0.17640    43    42    45    26
 C    -3.60370  -0.91860  -0.88300    44    45    48    40
 C    -2.66710  -1.76470  -1.26060    45    44    43    12
 C    -2.61520   2.18570  -0.22450    46    47    36    14
 C    -3.54820   1.24090  -0.38290    47    46    48    41
 C    -3.42890   0.33120  -1.38030    48    47    44    19
