    48
C48-C1-120                                                                      
 C     2.12710   1.82960   1.41560     1     4     3    25
 C     0.63970   2.91060   0.04620     2     3    31     8
 C     1.91830   2.57620   0.28910     3     2     6     1
 C     3.13600   0.95380   1.20780     4     1    15     5
 C     3.62870   1.10360  -0.07640     5     9     6     4
 C     2.72370   1.98340  -0.64150     6     3     5    11
 C    -1.24960   2.43760  -0.98170     7     8    36    19
 C     0.06940   2.44910  -1.16590     8     7    10     2
 C     3.68880  -0.00170  -0.85810     9     5    13    12
 C     0.71540   1.48360  -1.95370    10    11     8    21
 C     2.08650   1.34480  -1.70950    11    12     6    10
 C     2.70050   0.14010  -1.80660    12    11    23     9
 C     3.50690  -1.24630  -0.32910    13     9    16    14
 C     3.01320  -1.38000   0.97820    14    26    15    13
 C     2.72570  -0.25110   1.72620    15     4    14    29
 C     2.58580  -1.89240  -1.13940    16    33    23    13
 C    -1.60610  -1.91100  -1.43350    17    18    34    24
 C    -0.22800  -2.03150  -1.60150    18    17    32    22
 C    -2.15070   1.56440  -1.49860    19     7    46    20
 C    -1.57980   0.39100  -2.07190    20    24    19    21
 C    -0.13410   0.32400  -2.28720    21    20    22    10
 C     0.55580  -0.96640  -2.19030    22    23    18    21
 C     1.96400  -0.99280  -1.98740    23    12    16    22
 C    -2.35160  -0.76660  -1.76630    24    17    48    20
 C     1.06730   1.27650   2.10360    25     1    30    29
 C     1.97450  -2.25480   0.87720    26    33    14    27
 C     0.75540  -2.18740   1.50350    27    26    44    28
 C     0.38670  -1.02810   2.24380    28    29    27    39
 C     1.42320  -0.06880   2.28230    29    25    28    15
 C    -0.24990   1.72680   1.93760    30    25    31    37
 C    -0.42330   2.77000   0.95920    31    36     2    30
 C     0.44340  -2.80550  -0.59610    32    33    44    18
 C     1.76140  -2.63940  -0.40770    33    16    32    26
 C    -2.27860  -2.51320  -0.35960    34    45    43    17
 C    -2.69900   2.11360   0.51480    35    36    38    46
 C    -1.58910   2.78240   0.28210    36    35    31     7
 C    -1.34590   0.79180   2.09480    37    38    30    39
 C    -2.58940   1.09340   1.43770    38    42    35    37
 C    -0.99270  -0.63060   2.20840    39    40    28    37
 C    -1.91440  -1.53290   1.58740    40    41    43    39
 C    -3.09630  -1.14750   1.01920    41    42    45    40
 C    -3.41040   0.13680   0.92090    42    41    38    47
 C    -1.47730  -2.57170   0.75950    43    44    34    40
 C    -0.17430  -2.79550   0.66150    44    43    27    32
 C    -3.36330  -1.76280  -0.15920    45    34    48    41
 C    -3.25410   1.55730  -0.62510    46    47    35    19
 C    -3.86690   0.39500  -0.36740    47    46    48    42
 C    -3.57370  -0.75520  -1.03920    48    45    47    24
