    48
C48-C2-81                                                                       
 C     1.49690  -2.47980   0.62660     1     2     4    30
 C     2.34240  -1.68080   1.35280     2     1     3    12
 C     3.44930  -1.11260   0.73000     3     7    29     2
 C     0.15040  -2.59100   0.95390     4    35     1     5
 C    -0.50260  -1.73670   1.87230     5     6     4    11
 C    -1.88050  -1.55030   1.64890     6    13     5    38
 C     3.53460   0.14100   1.22390     7     8     3    15
 C     2.48940   0.38780   2.02510     8     7    12    19
 C    -1.70730   0.74760   2.13230     9    13    10    46
 C    -0.30940   0.66970   2.35740    10     9    18    11
 C     0.31400  -0.65590   2.37800    11    12     5    10
 C     1.70780  -0.72630   2.18740    12     8    11     2
 C    -2.49730  -0.37160   1.96550    13    48     6     9
 C     2.60210   1.99040   0.53090    14    16    15    19
 C     3.57390   1.05570   0.23150    15     7    23    14
 C     1.79100   2.44090  -0.48120    16    17    14    21
 C     0.53970   2.84290  -0.18860    17    27    16    20
 C     0.50450   1.78000   1.88670    18    19    20    10
 C     1.88720   1.57550   1.69730    19     8    18    14
 C    -0.16080   2.64040   0.97940    20    17    47    18
 C     1.68370   1.72370  -1.69700    21    22    24    16
 C     2.46600   0.60280  -1.83850    22    21    23    33
 C     3.46890   0.32520  -0.93150    23    29    15    22
 C     0.33430   1.74820  -2.05650    24    27    21    25
 C    -0.36680   0.59540  -2.48660    25    24    26    32
 C    -1.76330   0.56980  -2.13820    26    40    44    25
 C    -0.31440   2.58590  -1.18640    27    17    42    24
 C     2.43520  -1.57980  -1.38640    28    29    30    33
 C     3.43330  -1.00970  -0.64480    29    23    28     3
 C     1.58680  -2.48220  -0.78650    30    31    28     1
 C     0.32180  -2.61160  -1.21010    31    30    35    34
 C     0.38810  -0.63180  -2.50330    32    34    33    25
 C     1.78920  -0.58660  -2.17710    33    22    28    32
 C    -0.33140  -1.77880  -2.08140    34    31    41    32
 C    -0.54010  -2.85740  -0.20910    35    31    36     4
 C    -1.80220  -2.47920  -0.47850    36    35    38    41
 C    -3.60010  -1.06680   0.24980    37    48    39    38
 C    -2.62690  -2.00730   0.51900    38    36    37     6
 C    -3.43080  -0.34960  -0.91220    39    43    37    40
 C    -2.43760  -0.62530  -1.82730    40    41    39    26
 C    -1.67440  -1.75690  -1.70070    41    40    34    36
 C    -1.57290   2.47240  -0.74420    42    27    44    47
 C    -3.39320   0.98400  -0.59210    43    44    39    45
 C    -2.40390   1.55760  -1.33650    44    43    42    26
 C    -3.48670   1.12800   0.78090    45    48    43    46
 C    -2.37700   1.74490   1.36830    46    47    45     9
 C    -1.51360   2.54420   0.66930    47    46    20    42
 C    -3.59860  -0.12410   1.23130    48    45    13    37
