    48
C48-C1-13                                                                       
 C     1.93260   0.90560   2.05290     1    38     2     3
 C     3.06890   1.24240   1.35830     2     8     1    35
 C     0.64670   1.43100   1.83080     3     1     4     9
 C    -0.52350   0.68640   2.20400     4     6     3    39
 C    -2.95230   0.43230   1.85470     5    47    42     6
 C    -1.77540   1.16250   1.84930     6     5     4    23
 C     3.70040   1.42080  -0.68760     7     8    11    34
 C     2.95510   2.01190   0.26320     8     2     7    10
 C     0.51080   2.23820   0.61940     9    24    10     3
 C     1.67530   2.30860  -0.16620    10     8     9    14
 C     2.82550   1.25110  -1.70750    11    12     7    14
 C     2.79190  -0.07100  -1.94360    12    11    13    33
 C     1.60520  -0.69650  -2.18670    13    12    27    16
 C     1.59380   1.82840  -1.49250    14    11    15    10
 C     0.36350   1.33250  -1.93900    15    14    20    16
 C     0.35800  -0.05090  -2.41070    16    18    13    15
 C    -2.10270  -0.11610  -2.16650    17    43    18    22
 C    -0.86640  -0.75270  -2.27720    18    17    16    19
 C    -0.75440  -1.92160  -1.47770    19    26    32    18
 C    -0.84130   1.78500  -1.35940    20    22    15    24
 C    -3.24520   1.35670  -0.97360    21    25    46    22
 C    -2.07450   1.20500  -1.68150    22    21    20    17
 C    -1.91210   2.05440   0.77500    23    25    24     6
 C    -0.75930   2.27410   0.01770    24    23     9    20
 C    -3.17810   1.79590   0.30920    25    21    47    23
 C     0.46000  -2.31140  -0.96870    26    27    19    31
 C     1.67100  -1.84910  -1.40260    27    26    13    30
 C     2.59580  -1.90170   0.75240    28    36    30    29
 C     1.28740  -2.16120   1.20480    29    31    37    28
 C     2.83700  -1.77440  -0.62650    30    33    27    28
 C     0.25410  -2.52650   0.38400    31    29    45    26
 C    -1.76870  -2.13880  -0.54500    32    44    45    19
 C     3.62490  -0.71840  -1.06390    33    12    30    34
 C     4.23750   0.22100  -0.24420    34    35     7    33
 C     3.86620   0.13110   1.07860    35    36    34     2
 C     3.10170  -0.89200   1.55930    36    38    35    28
 C     0.92020  -1.21500   2.17130    37    38    39    29
 C     2.02220  -0.44600   2.25400    38    37    36     1
 C    -0.40000  -0.76280   2.29670    39    37    40     4
 C    -1.50140  -1.47700   1.71830    40    42    45    39
 C    -3.64630  -1.11180   0.50470    41    44    48    42
 C    -2.76930  -0.90370   1.57880    42     5    40    41
 C    -3.27370  -0.63030  -1.61140    43    46    44    17
 C    -2.99930  -1.55880  -0.63160    44    32    43    41
 C    -1.07460  -2.30270   0.65280    45    31    32    40
 C    -4.09390   0.28030  -1.03410    46    43    48    21
 C    -3.93850   0.94460   1.05710    47    48    25     5
 C    -4.45580  -0.00750   0.25410    48    47    46    41
