    48
C48-C1-102                                                                      
 C     2.24720   2.22820  -0.37850     1     2     3    37
 C     1.07310   2.89990  -0.43810     2     1    22     8
 C     2.65480   1.69750   0.83620     3    48     1     9
 C    -1.09420   2.94590  -0.04090     4     5    21     8
 C    -2.20360   2.29270   0.38870     5     4     6    12
 C    -2.07780   1.65290   1.62020     6     7     5    11
 C    -2.74530   0.47580   1.75860     7    13    26     6
 C     0.14150   3.02080   0.58000     8     4     2    10
 C     1.60550   1.56390   1.79750     9    10    46     3
 C     0.35210   2.20880   1.70840    10     8    11     9
 C    -0.77930   1.50990   2.17530    11    10    42     6
 C    -2.75210   1.54970  -0.69830    12    14    20     5
 C    -3.49580  -0.13310   0.81650    13     7    16    14
 C    -3.42790   0.36040  -0.47450    14    15    13    12
 C    -3.08070  -0.71360  -1.24630    15    14    17    18
 C    -3.11600  -1.46000   0.81740    16    17    13    27
 C    -2.99250  -1.85440  -0.46650    17    31    16    15
 C    -1.99670  -0.67430  -2.11570    18    23    15    19
 C    -1.25590   0.48310  -2.38890    19    18    20    24
 C    -1.77300   1.64830  -1.72230    20    21    12    19
 C    -0.89230   2.59100  -1.33670    21    22    20     4
 C     0.40450   2.52650  -1.55630    22    21    25     2
 C    -1.32940  -1.83470  -1.85980    23    33    31    18
 C     0.20860   0.35560  -2.53090    24    25    34    19
 C     1.01740   1.46480  -2.12820    25    22    37    24
 C    -1.85050  -0.41890   2.25300    26    42     7    27
 C    -2.00710  -1.64260   1.65400    27    26    16    29
 C     0.45970  -1.87480   1.79400    28    32    29    43
 C    -0.82180  -2.34040   1.29970    29    27    30    28
 C    -0.82940  -2.87800  -0.03630    30    31    41    29
 C    -1.89280  -2.51830  -0.83140    31    17    23    30
 C     1.64260  -2.23080   1.07680    32    44    40    28
 C     0.01150  -1.97030  -1.88390    33    23    34    41
 C     0.85940  -0.92100  -2.29750    34    33    35    24
 C     2.17850  -0.99620  -1.78260    35    38    36    34
 C     2.92970   0.14300  -1.40800    36    37    47    35
 C     2.26640   1.34370  -1.50600    37    36    25     1
 C     2.58720  -1.99560  -0.89300    38    39    40    35
 C     3.46760  -1.45050  -0.05020    39    38    47    44
 C     1.56430  -2.67050  -0.25820    40    41    38    32
 C     0.33960  -2.80380  -0.78630    41    40    30    33
 C    -0.65740   0.14890   2.55220    42    26    43    11
 C     0.53860  -0.55450   2.45130    43    42    46    28
 C     2.82010  -1.52130   1.14420    44    45    39    32
 C     2.81630  -0.28990   1.66400    45    44    46    48
 C     1.70190   0.21790   2.23790    46    45    43     9
 C     3.74720  -0.15280  -0.31560    47    39    48    36
 C     3.43510   0.57310   0.80860    48    45     3    47
