    48
C48-Cs-136                                                                      
 C    -1.15750  -2.95790  -0.30500     1    29     3     8
 C    -3.02720  -1.66740   0.44440     2     4     3    31
 C    -2.32270  -2.27420  -0.59060     3     1     2     9
 C    -3.55780  -0.51350   0.02580     4     5     2    10
 C    -3.26970   0.53520   0.79190     5     4    48    33
 C    -0.00530  -1.84190  -2.07000     6    14     7     8
 C    -1.13070  -1.04740  -2.25990     7     9     6    22
 C     0.00520  -2.84390  -1.09140     8     6    13     1
 C    -2.32320  -1.30950  -1.61240     9    10     7     3
 C    -3.08940  -0.24980  -1.20440    10     4     9    20
 C     2.32910  -2.27270  -0.56590    11    13    24    12
 C     2.31200  -1.30620  -1.59410    12    15    14    11
 C     1.15850  -2.95700  -0.30280    13    28    11     8
 C     1.11940  -1.04770  -2.24570    14    12     6    16
 C     3.09490  -0.25320  -1.19830    15    25    12    19
 C     0.69360   0.27920  -2.43860    16    22    14    18
 C     0.71100   2.46080  -1.48040    17    44    18    23
 C     1.45430   1.37030  -1.94260    18    17    19    16
 C     2.64930   1.04780  -1.26100    19    15    18    38
 C    -2.65200   1.05470  -1.27110    20    10    21    48
 C    -1.45140   1.38600  -1.94440    21    23    20    22
 C    -0.70900   0.28450  -2.44590    22    16     7    21
 C    -0.71610   2.48110  -1.47250    23    21    45    17
 C     3.05690  -1.65310   0.44570    24    25    11    26
 C     3.60070  -0.51490   0.02460    25    24    39    15
 C     2.31350  -1.32900   1.58710    26    27    24    40
 C     1.13160  -1.95770   1.83800    27    26    28    35
 C     0.65190  -2.91920   0.97680    28    29    13    27
 C    -0.67850  -2.91880   0.98900    29    28    30     1
 C    -1.14150  -1.95620   1.85970    30    31    29    35
 C    -2.31350  -1.31770   1.59720    31    30     2    33
 C    -1.20180   2.11390   1.58500    32    37    34    47
 C    -2.39380   0.07080   1.77610    33     5    31    34
 C    -1.25760   0.82240   2.16540    34    33    32    36
 C     0.00100  -1.26240   2.30720    35    27    30    36
 C     0.01170   0.16020   2.45730    36    35    43    34
 C     0.00690   2.72580   1.41050    37    46    42    32
 C     2.90290   1.59580   0.02820    38    41    39    19
 C     3.29830   0.52900   0.79970    39    25    38    40
 C     2.40660   0.06300   1.77630    40    39    26    43
 C     1.99650   2.49400   0.49400    41    38    44    42
 C     1.20560   2.11360   1.61470    42    37    43    41
 C     1.27750   0.82490   2.17420    43    42    40    36
 C     1.10640   3.15170  -0.33150    44    46    41    17
 C    -1.14550   3.18810  -0.33820    45    46    47    23
 C    -0.01570   3.46900   0.28990    46    44    45    37
 C    -2.02840   2.53260   0.49020    47    48    45    32
 C    -2.90790   1.61850   0.02170    48    47     5    20
