    48
C48-C2-24                                                                       
 C     3.58510  -1.48430  -0.77990     1    30     5     2
 C     2.51000  -2.17610  -0.32360     2     1    15    38
 C    -1.39900  -2.09160   1.14620     3    16     4    39
 C    -0.09360  -2.29060   0.73090     4     3    37    14
 C     3.00270  -0.65540  -1.67940     5     1     6     8
 C     3.26940   0.63950  -1.30190     6     5     7    19
 C     2.19830   1.51320  -1.45220     7     6    13    20
 C     1.71610  -1.04550  -2.01020     8     5    12    15
 C    -2.29350  -1.85840  -0.94320     9    16    27    10
 C    -0.98860  -1.74780  -1.46360    10     9    14    11
 C    -0.67020  -0.57330  -2.27310    11    29    12    10
 C     0.68970  -0.18070  -2.37330    12     8    11    13
 C     0.99410   1.18330  -2.09020    13    26     7    12
 C     0.10910  -2.28330  -0.71460    14    15    10     4
 C     1.40350  -2.08630  -1.12720    15     2    14     8
 C    -2.52950  -2.21640   0.36980    16    48     3     9
 C     3.34850   1.10570   0.90630    17    18    32    19
 C     2.31790   1.99830   0.82560    18    17    22    20
 C     4.03270   0.52300  -0.13240    19    17    30     6
 C     1.79150   2.36620  -0.41080    20    21    18     7
 C     0.44890   2.67080  -0.54570    21    20    26    24
 C     1.34410   1.61670   1.74490    22    23    18    31
 C     0.03050   1.95740   1.60000    23    22    34    24
 C    -0.46360   2.65950   0.50750    24    45    23    21
 C    -1.36650   1.68020  -1.77730    25    26    29    44
 C    -0.03760   1.99990  -1.66480    26    25    13    21
 C    -3.34960  -1.00080  -1.22930    27    28    47     9
 C    -2.94850   0.17020  -1.73550    28    27    29    43
 C    -1.70010   0.39540  -2.20900    29    28    25    11
 C     4.20610  -0.81160   0.19940    30     1    33    19
 C     1.70340   0.35760   2.22470    31    32    22    36
 C     2.96890   0.11280   1.76690    32    33    17    31
 C     3.41390  -1.07190   1.30060    33    32    30    38
 C    -0.98910   1.13710   2.03520    34    23    40    35
 C    -0.67800  -0.21570   2.37610    35    39    36    34
 C     0.68000  -0.61940   2.29360    36    31    35    37
 C     1.01770  -1.80580   1.51020    37    38     4    36
 C     2.33880  -1.91650   1.02160    38     2    33    37
 C    -1.72580  -1.06290   2.03650    39    42    35     3
 C    -2.17830   1.48460   1.38390    40    41    34    45
 C    -3.22720   0.58430   1.25710    41    42    40    46
 C    -3.01940  -0.71590   1.68220    42    48    41    39
 C    -3.40950   1.17600  -0.93730    43    28    44    46
 C    -2.37040   2.07740  -0.87130    44    43    45    25
 C    -1.81080   2.37970   0.36250    45    24    44    40
 C    -4.02950   0.51750   0.10460    46    43    47    41
 C    -4.20400  -0.83300  -0.15230    47    48    27    46
 C    -3.64000  -1.56130   0.81560    48    47    42    16
