    48
C48-C1-105                                                                      
 C     3.16870  -0.46470  -0.94780     1     2     9    41
 C     3.02510   0.81300  -1.31340     2     1    13     3
 C     1.84490   1.21760  -1.87430     3     2    33     6
 C    -0.78010   2.06410  -1.75980     4    35    32     5
 C    -0.55110   0.74670  -2.28400     5     4     6    11
 C     0.83140   0.29860  -2.30090     6     3     8     5
 C     0.04870  -1.98740  -1.91170     7     8    44    10
 C     1.11780  -1.10300  -2.06150     8     7     9     6
 C     2.28380  -1.42520  -1.29260     9     1    46     8
 C    -1.29970  -1.55670  -1.93050    10    11    47     7
 C    -1.63880  -0.20230  -2.07920    11    10    12     5
 C    -2.82800   0.21160  -1.37970    12    34    37    11
 C     3.38200   1.57800  -0.25100    13    14    22     2
 C     2.38100   2.46010  -0.10720    14    13    33    15
 C     1.76340   2.21980   1.11750    15    14    16    17
 C     0.39100   2.45530   1.31110    16    15    23    20
 C     2.45800   1.10530   1.62410    17    18    22    15
 C     1.64260   0.12190   2.17100    18    17    19    43
 C     0.27800   0.32610   2.40530    19    18    28    20
 C    -0.40270   1.52680   2.08650    20    21    19    16
 C    -1.79640   1.43990   1.85420    21    24    20    30
 C     3.53410   0.75060   0.80870    22    13    41    17
 C    -0.30740   2.99320   0.19080    23    25    32    16
 C    -2.47270   2.26420   0.97540    24    26    25    21
 C    -1.64490   2.85230   0.07990    25    23    24    35
 C    -3.39010   1.55450   0.28740    26    27    24    34
 C    -3.40010   0.29790   0.74630    27    26    37    30
 C    -0.36550  -0.91990   2.30690    28    38    19    29
 C    -1.71600  -1.01320   1.90730    29    30    31    28
 C    -2.42800   0.17070   1.74730    30    29    27    21
 C    -2.01570  -2.07890   1.03320    31    40    29    36
 C     0.23950   2.72630  -1.07880    32    33     4    23
 C     1.52140   2.39160  -1.19180    33    32    14     3
 C    -3.00170   1.52190  -1.00900    34    35    26    12
 C    -1.96350   2.34580  -1.14920    35    34     4    25
 C    -2.77320  -1.82830  -0.14350    36    37    47    31
 C    -3.30550  -0.59930  -0.30980    37    36    27    12
 C     0.61260  -1.85500   1.94130    38    39    43    28
 C     0.26160  -2.86820   1.07430    39    40    38    45
 C    -1.04630  -2.99970   0.69160    40    48    39    31
 C     3.53910  -0.55110   0.37090    41    42     1    22
 C     2.77870  -1.57280   0.86560    42    41    43    46
 C     1.84560  -1.23430   1.85750    43    38    42    18
 C     0.09780  -3.10820  -1.07210    44    48    45     7
 C     1.05130  -3.03910  -0.07410    45    46    44    39
 C     2.19100  -2.30520  -0.19330    46    45     9    42
 C    -2.02360  -2.45010  -1.12020    47    48    36    10
 C    -1.13920  -3.28910  -0.61510    48    47    44    40
