    48
C48-D2-16                                                                       
 C    -3.56090   1.50960  -0.37630     1     9    31     6
 C    -0.82300   2.07710  -1.11180     2     3     8     4
 C     0.54260   2.12950  -1.20160     3     2    19    11
 C    -1.56960   1.08080  -1.83080     4     2     6     5
 C    -0.71190  -0.03460  -2.25730     5     7    18     4
 C    -2.94250   0.86380  -1.45510     6    39     1     4
 C    -1.31650  -1.27250  -1.95890     7    38    46     5
 C    -1.38970   2.45410   0.11280     8     9     2    13
 C    -2.64600   2.09950   0.42380     9     8    21     1
 C     2.65750   2.11350  -0.41520    10    11    14    16
 C     1.38580   2.45620  -0.11460    11    10    12     3
 C     0.82650   2.07240   1.11110    12    13    11    28
 C    -0.53950   2.12270   1.18950    13    12    23     8
 C     3.57200   1.50710   0.37420    14    10    44    27
 C     3.49400   0.40780  -1.42510    15    16    20    44
 C     2.59400   1.38350  -1.55990    16    15    19    10
 C     1.56170  -1.08150  -1.82350    17    47    20    18
 C     0.71410   0.03940  -2.25470    18    19     5    17
 C     1.31360   1.27120  -1.96990    19    16     3    18
 C     2.93550  -0.86440  -1.43850    20    15    48    17
 C    -2.61090   1.37550   1.56280    21    22     9    23
 C    -3.51680   0.39630   1.44740    22    21    24    31
 C    -1.31640   1.26350   1.95890    23    21    13    26
 C    -2.94790  -0.86400   1.46880    24    22    33    25
 C    -1.57020  -1.08390   1.83470    25    37    24    26
 C    -0.71120   0.03280   2.25790    26    23    29    25
 C     2.94500   0.86870   1.45200    27    42    14    28
 C     1.56890   1.07620   1.82910    28    12    27    29
 C     0.71610  -0.04010   2.25310    29    30    26    28
 C     1.31480  -1.27500   1.95520    30    43    36    29
 C    -4.31300   0.58680   0.32320    31    32     1    22
 C    -4.30730  -0.58380  -0.32330    32    31    33    39
 C    -3.55860  -1.50930   0.38060    33    34    32    24
 C    -2.64950  -2.08470  -0.43050    34    33    35    38
 C    -1.38830  -2.44370  -0.11240    35    34    37    46
 C     0.53780  -2.14370   1.20130    36    37    30    41
 C    -0.82600  -2.08670   1.12350    37    36    35    25
 C    -2.61630  -1.36710  -1.57750    38    39    34     7
 C    -3.52030  -0.39440  -1.45700    39    38     6    32
 C     2.64790  -2.08160   0.42160    40    41    43    48
 C     1.38420  -2.44180   0.10760    41    40    47    36
 C     3.52090  -0.39620   1.44470    42    43    27    45
 C     2.61100  -1.36400   1.56640    43    42    40    30
 C     4.31770   0.57490  -0.31800    44    45    14    15
 C     4.33000  -0.59970   0.32590    45    44    48    42
 C    -0.54240  -2.14600  -1.20600    46    47     7    35
 C     0.81930  -2.08940  -1.12540    47    46    41    17
 C     3.58260  -1.51280  -0.37900    48    40    45    20
