    48
C48-C1-131                                                                      
 C    -1.52100   2.76510  -0.82560     1    25     2     6
 C    -1.24820   2.98960   0.48150     2     7     1     3
 C    -2.06410   2.13640   1.15360     3     2    28     9
 C     0.80040   2.53880  -1.24730     4     6    13     5
 C     1.08000   2.94120   0.08740     5     8     7     4
 C    -0.49900   2.35350  -1.64340     6     4     1    18
 C     0.01330   2.94470   0.96850     7     2     5    10
 C     2.24220   2.33280   0.38590     8     5    14    48
 C    -1.28110   1.44020   2.05770     9     3    44    10
 C     0.03370   1.96270   1.99230    10    47     9     7
 C     2.34150  -0.62950  -1.82570    11    23    16    12
 C     1.46630   0.41380  -2.23610    12    11    13    17
 C     1.81480   1.67050  -1.63830    13    14     4    12
 C     2.82580   1.73600  -0.68790    14    15     8    13
 C     3.51980   0.67100  -0.28360    15    14    16    42
 C     3.38820  -0.51300  -0.89990    16    15    39    11
 C     0.06320   0.11070  -2.47710    17    18    20    12
 C    -0.88920   1.14900  -2.24270    18     6    19    17
 C    -2.21150   0.91580  -1.82840    19    22    25    18
 C    -0.44800  -1.23010  -2.23440    20    24    21    17
 C    -1.79660  -1.42550  -1.84260    21    30    22    20
 C    -2.67840  -0.35240  -1.63360    22    19    26    21
 C     1.77400  -1.83970  -1.53200    23    24    40    11
 C     0.46510  -2.15340  -1.67570    24    23    20    35
 C    -2.55100   1.89700  -0.91780    25     1    19    28
 C    -3.46320  -0.63550  -0.50950    26    29    27    22
 C    -3.36420   0.23440   0.57670    27    28    26    43
 C    -3.00820   1.53160   0.34540    28    27     3    25
 C    -3.07770  -1.84910  -0.12000    29    26    32    30
 C    -2.13990  -2.39970  -0.90570    30    29    36    21
 C    -1.39900  -2.50260   1.14490    31    32    33    36
 C    -2.56850  -1.78750   1.11150    32    29    31    43
 C    -0.31590  -2.02020   1.84450    33    31    37    45
 C     1.26960  -2.91570   0.24420    34    40    35    37
 C     0.14270  -3.00980  -0.58920    35    36    34    24
 C    -1.14970  -2.98320  -0.16320    36    35    30    31
 C     0.99180  -2.26480   1.47010    37    33    41    34
 C     2.96820  -0.86670   1.21920    38    42    41    39
 C     3.24730  -1.52610   0.01910    39    40    16    38
 C     2.34200  -2.41230  -0.42680    40    39    34    23
 C     1.79410  -1.19600   1.89330    41    38    37    46
 C     3.20330   0.47640   1.03490    42    15    38    48
 C    -2.65950  -0.49260   1.58320    43    32    44    27
 C    -1.54600   0.07490   2.26250    44     9    45    43
 C    -0.38310  -0.72660   2.40770    45    46    33    44
 C     0.92660  -0.20620   2.41100    46    45    41    47
 C     1.18900   1.17770   2.21090    47    48    10    46
 C     2.35920   1.47640   1.48400    48    42     8    47
