    48
C48-D2h-15                                                                      
 C     3.49020   1.05110   1.04560     1     2    30     6
 C     2.62570   1.97410   0.63710     2     1     3    21
 C     1.36490   2.11110   1.07440     3     2    12    10
 C    -1.38110   2.12870   1.08790     4    17    11     5
 C    -0.71880   1.17220   1.90760     5     4    10    18
 C     2.90600  -0.03240   1.67800     6     1    39     9
 C     1.40260  -2.20740   1.14780     7    38    41     8
 C     0.71690  -1.23200   1.93760     8     7    20     9
 C     1.50240  -0.02360   2.07240     9    10     8     6
 C     0.70740   1.16770   1.91160    10     3     5     9
 C    -0.65060   2.51990  -0.01890    11    12    14     4
 C     0.65190   2.51730  -0.03310    12    11     3    23
 C    -3.53850   1.10230  -1.09930    13    15    25    44
 C    -1.38610   2.16940  -1.13400    14    15    11    26
 C    -2.65600   2.02030  -0.69060    15    13    14    17
 C    -3.51160   1.05710   1.04470    16    17    44    19
 C    -2.65140   1.99500   0.67150    17    16     4    15
 C    -1.51280  -0.03230   2.05470    18     5    20    19
 C    -2.92170  -0.04060   1.66290    19    16    48    18
 C    -0.72500  -1.24350   1.92840    20    46     8    18
 C     2.67850   2.04640  -0.72600    21    22    23     2
 C     3.55520   1.10930  -1.10110    22    21    29    30
 C     1.39850   2.19410  -1.15110    23    21    12    27
 C    -1.50770   0.03730  -2.10920    24    35    26    25
 C    -2.90080   0.03000  -1.69630    25    13    42    24
 C    -0.70760   1.23630  -1.97430    26    14    27    24
 C     0.72960   1.23580  -1.97270    27    23    26    28
 C     1.52680   0.03360  -2.10590    28    36    27    29
 C     2.92440   0.02000  -1.69630    29    22    32    28
 C     4.29660   0.66340  -0.00580    30    31     1    22
 C     4.30290  -0.66680   0.00140    31    30    32    39
 C     3.51540  -1.06470  -1.05230    32    33    31    29
 C     2.63750  -1.96600  -0.63540    33    32    34    38
 C     1.37340  -2.08540  -1.06830    34    33    41    36
 C    -0.70610  -1.14830  -1.91710    35    37    36    24
 C     0.71930  -1.15390  -1.92600    36    34    35    28
 C    -1.35390  -2.05900  -1.04070    37    43    40    35
 C     2.68830  -2.05840   0.73280    38    39     7    33
 C     3.56500  -1.12280   1.10250    39    38     6    31
 C    -0.64500  -2.52550   0.03700    40    41    37    46
 C     0.65630  -2.52590   0.02690    41    40    34     7
 C    -3.50240  -1.02220  -1.02320    42    43    45    25
 C    -2.61600  -1.92200  -0.61310    43    42    37    47
 C    -4.30700   0.66310  -0.01780    44    45    16    13
 C    -4.32320  -0.66930   0.03250    45    44    42    48
 C    -1.41580  -2.23040   1.15200    46    47    40    20
 C    -2.70330  -2.07400   0.74780    47    48    46    43
 C    -3.59410  -1.14700   1.11720    48    47    45    19
