    48
C48-C2-163                                                                      
 C    -0.11990   2.32180   1.69270     1    36     2     6
 C    -1.40990   1.86070   1.77960     2     1     5    30
 C    -1.76620   2.53790  -0.46210     3    13     5     4
 C    -0.41590   2.93040  -0.56890     4     6     3    45
 C    -2.30660   2.05740   0.72180     5    10     3     2
 C     0.42400   2.91090   0.54150     6     4     7     1
 C     1.76830   2.52110   0.46040     7     9     8     6
 C     2.29730   2.07330  -0.74950     8    48     7    44
 C     2.03420   1.72610   1.56180     9    36    46     7
 C    -3.13460   0.96660   0.71170    10    29     5    11
 C    -3.45110   0.21120  -0.42240    11    16    12    10
 C    -2.74850   0.57590  -1.57110    12    13    11    17
 C    -2.00820   1.73360  -1.56190    13    22    12     3
 C    -2.57140  -1.96480  -0.66280    14    19    16    15
 C    -1.81740  -1.63670  -1.76860    15    14    17    26
 C    -3.35410  -1.08730   0.00770    16    14    11    28
 C    -1.90680  -0.34250  -2.25220    17    15    23    12
 C    -0.57280  -2.87990  -0.37840    18    19    20    26
 C    -1.75950  -2.60050   0.20270    19    14    18    31
 C     0.55640  -2.87060   0.37120    20    21    18    32
 C     1.74640  -2.58320  -0.18510    21    20    37    27
 C    -0.87010   1.60280  -2.25590    22    13    45    23
 C    -0.72600   0.29080  -2.66640    23    22    17    24
 C     0.56360  -0.29230  -2.64860    24    23    41    25
 C     0.65520  -1.65700  -2.13370    25    27    26    24
 C    -0.55530  -2.23270  -1.65160    26    15    25    18
 C     1.85120  -1.99430  -1.43980    27    43    21    25
 C    -2.92400  -1.13190   1.31270    28    29    16    31
 C    -2.78200   0.12940   1.73290    29    28    10    30
 C    -1.65020   0.57990   2.35390    30    29     2    34
 C    -1.87300  -2.01890   1.45970    31    28    19    33
 C     0.54160  -2.22730   1.64800    32    38    20    33
 C    -0.67650  -1.66110   2.14210    33    31    32    34
 C    -0.55940  -0.30460   2.65950    34    35    30    33
 C     0.73300   0.26850   2.65780    35    36    39    34
 C     0.87480   1.56720   2.23000    36     9     1    35
 C     2.57770  -1.97460   0.68570    37    21    40    38
 C     1.81820  -1.64660   1.78280    38    37    39    32
 C     1.92630  -0.35280   2.25820    39    38    35    46
 C     3.35400  -1.08490   0.01520    40    37    47    43
 C     1.64650   0.60490  -2.34180    41    42    44    24
 C     2.76570   0.13490  -1.70830    42    43    41    48
 C     2.89530  -1.11990  -1.28930    43    42    27    40
 C     1.41230   1.90470  -1.82280    44    45     8    41
 C     0.12550   2.36850  -1.74500    45    22    44     4
 C     2.78010   0.57450   1.58460    46     9    47    39
 C     3.46630   0.22810   0.42010    47    40    48    46
 C     3.14440   0.98510  -0.70400    48    42     8    47
