    48
C48-C2v-56                                                                      
 C     2.43190  -0.90880  -1.72560     1     2    27     5
 C     2.43260  -2.11780  -1.06240     2     9    23     1
 C     2.02800   1.77720  -1.31070     3     4     6    28
 C     3.04390   1.12420  -0.66140     4     5     3    45
 C     3.39030  -0.14960  -1.02110     5    10     4     1
 C     1.22730   2.72070  -0.65920     6     8     7     3
 C     1.26540   2.77080   0.72770     7    48     6    44
 C    -0.01010   2.66270  -1.26090     8    30    46     6
 C     3.28670  -2.00850  -0.01700     9    10     2    11
 C     3.90660  -0.83740   0.03120    10     9     5    16
 C     2.39850  -2.01470   1.00670    11     9    12    17
 C     1.17090  -2.49080   0.65800    12    11    13    23
 C     0.00410  -2.16930   1.32800    13    12    14    18
 C    -1.16780  -2.50030   0.66730    14    15    13    19
 C    -2.39330  -2.02870   1.02290    15    21    14    43
 C     3.47950  -0.11420   1.10910    16    10    45    17
 C     2.46790  -0.85670   1.75100    17    11    39    16
 C     0.01030  -1.00890   2.21130    18    13    42    39
 C    -1.17980  -2.57800  -0.75500    19    20    22    14
 C    -2.41450  -2.08020  -1.06390    20    21    19    24
 C    -3.26480  -1.99380  -0.01160    21    32    15    20
 C    -0.00160  -2.26700  -1.41420    22    19    23    26
 C     1.18300  -2.58960  -0.76350    23     2    22    12
 C    -2.46550  -0.88460  -1.74250    24    20    25    31
 C    -1.28750  -0.33410  -2.28080    25    24    29    26
 C    -0.00760  -1.05350  -2.22810    26    27    22    25
 C     1.26690  -0.34170  -2.27270    27    28     1    26
 C     1.18520   1.05760  -2.18540    28    30    27     3
 C    -1.22630   1.07310  -2.19430    29    30    25    35
 C    -0.01570   1.65980  -2.15080    30     8    28    29
 C    -3.44820  -0.13430  -1.06030    31    32    34    24
 C    -3.90160  -0.83300   0.01890    32    21    37    31
 C    -3.07730   1.14220   0.69160    33    37    36    34
 C    -3.09390   1.15190  -0.72300    34    35    31    33
 C    -2.07940   1.82840  -1.34890    35    34    46    29
 C    -2.05200   1.81100   1.33230    36    33    47    41
 C    -3.44160  -0.12780   1.08930    37    32    33    43
 C     1.22840   1.10210   2.19080    38    40    39    44
 C     1.28840  -0.30400   2.27840    39    17    38    18
 C     0.00880   1.68950   2.13120    40    48    38    41
 C    -1.19770   1.07430   2.19030    41    40    42    36
 C    -1.27770  -0.32500   2.28920    42    43    41    18
 C    -2.45640  -0.87220   1.76500    43    15    42    37
 C     2.11280   1.86290   1.37950    44    45     7    38
 C     3.12850   1.17770   0.75050    45    44    16     4
 C    -1.25500   2.74600  -0.68580    46     8    47    35
 C    -1.23580   2.76160   0.69960    47    48    46    36
 C     0.00390   2.73260   1.28310    48    40    47     7
