    48
C48-C2-122                                                                      
 C     1.33060   1.92010   1.66000     1    11     2    28
 C     2.33470   1.01720   1.77800     2     1    13     4
 C     0.49760  -0.53930   2.33570     3     6     4     9
 C     1.90630  -0.30140   2.03100     4     2     5     3
 C     2.63840  -1.26420   1.25610     5     8    14     4
 C    -0.02850  -1.77320   1.92160     6    48     7     3
 C     0.65500  -2.56220   0.99330     7     8     6    46
 C     1.93070  -2.31290   0.66710     8     7    17     5
 C    -0.52070   0.53330   2.32700     9    11    10     3
 C    -1.93370   0.30000   2.02090    10    47    12     9
 C     0.01110   1.76070   1.90170    11     1    31     9
 C    -2.66600   1.27510   1.25020    12    30    40    10
 C     3.27780   1.35220   0.80360    13    15    20     2
 C     3.65020  -0.92010   0.33690    14    16    15     5
 C     3.83530   0.40170   0.04920    15    13    14    19
 C     3.34480  -1.57350  -0.81260    16    17    18    14
 C     2.31770  -2.40710  -0.65180    17    16     8    42
 C     2.97990  -0.61900  -1.68770    18    19    16    26
 C     3.32550   0.58800  -1.22720    19    18    25    15
 C     2.60500   2.23730  -0.02240    20    28    25    13
 C     0.07030   2.33770  -1.25100    21    22    27    23
 C    -1.26010   2.04880  -1.50650    22    21    37    29
 C     1.12960   1.52260  -1.80610    23    25    21    24
 C     0.70580   0.18260  -2.27200    24    26    36    23
 C     2.44800   1.63280  -1.25610    25    19    20    23
 C     1.67080  -0.84560  -2.08300    26    18    42    24
 C     0.30220   2.91320   0.04260    27    28    31    21
 C     1.51610   2.70670   0.57160    28    20    27     1
 C    -2.30590   2.38960  -0.62750    29    32    30    22
 C    -1.94050   2.33700   0.68950    30    31    29    12
 C    -0.66710   2.58410   1.00160    31    30    11    27
 C    -3.33820   1.56610  -0.78810    32    29    34    40
 C    -3.27440  -0.55000  -1.18420    33    34    38    39
 C    -2.93270   0.63800  -1.67810    34    33    32    37
 C    -1.09240  -1.50380  -1.78520    35    38    43    36
 C    -0.68480  -0.17150  -2.27580    36    37    24    35
 C    -1.64980   0.84490  -2.10820    37    34    22    36
 C    -2.40410  -1.60030  -1.20430    38    33    44    35
 C    -3.86590  -0.41230   0.07240    39    41    40    33
 C    -3.69470   0.90880   0.34620    40    32    39    12
 C    -3.29600  -1.36970   0.81470    41    39    44    47
 C     1.27440  -2.07570  -1.51600    42    43    17    26
 C    -0.05470  -2.34560  -1.25310    43    42    46    35
 C    -2.60610  -2.25200  -0.00290    44    45    38    41
 C    -1.52310  -2.70820   0.59850    45    44    46    48
 C    -0.32050  -2.90840   0.03820    46    45     7    43
 C    -2.34830  -1.03500   1.79220    47    48    41    10
 C    -1.35050  -1.94550   1.70400    48     6    47    45
