    48
C48-C1-90                                                                       
 C    -1.64730  -1.23350   2.04830     1     2    27     5
 C    -2.83540  -0.73260   1.47240     2    12    22     1
 C     1.23540  -1.60140   2.05840     3    28     4     6
 C     0.67270  -0.45380   2.58510     4     3     7     5
 C    -0.72110  -0.26800   2.57670     5    10     4     1
 C     2.41360  -1.54340   1.29760     6     9     3    31
 C     1.31030   0.75130   2.34330     7     8     4    14
 C     2.53900   0.78240   1.71000     8    18     7     9
 C     3.17740  -0.37430   1.20360     9    48     6     8
 C    -0.93690   1.10620   2.37940    10    11    14     5
 C    -2.09800   1.50510   1.77110    11    10    12    13
 C    -3.08550   0.63270   1.39330    12    11    19     2
 C    -1.94870   2.33740   0.68460    13    21    17    11
 C     0.30560   1.68320   2.09520    14     7    10    16
 C     1.66600   2.46500   0.29860    15    16    18    45
 C     0.45160   2.54870   0.96970    16    15    17    14
 C    -0.71230   2.70740   0.22550    17    13    16    38
 C     2.77520   1.77730   0.78530    18    46     8    15
 C    -3.62170   0.96140   0.16670    19    20    21    12
 C    -3.70960  -0.19150  -0.52590    20    19    26    22
 C    -2.80310   1.96710  -0.29240    21    13    19    39
 C    -3.28180  -1.24800   0.24690    22    20    23     2
 C    -2.45900  -2.10040  -0.45650    23    24    22    25
 C    -1.35090  -2.68500   0.08580    24    23    34    27
 C    -2.24460  -1.42790  -1.64580    25    26    32    23
 C    -2.95110  -0.27370  -1.66730    26    25    20    40
 C    -0.98840  -2.30650   1.40370    27    28     1    24
 C     0.36570  -2.44380   1.45690    28    29     3    27
 C     0.89100  -2.82410   0.28130    29    28    31    34
 C     2.48100  -1.74330  -1.08590    30    47    31    35
 C     2.14610  -2.30960   0.12940    31    29    30     6
 C    -1.00300  -1.29530  -2.21930    32    25    33    43
 C     0.09150  -2.04890  -1.78940    33    32    35    34
 C    -0.13450  -2.82080  -0.62220    34    29    24    33
 C     1.37310  -1.48340  -1.94940    35    33    36    30
 C     1.51470  -0.13800  -2.36630    36    37    35    42
 C     2.70680   0.28250  -1.86450    37    44    36    47
 C    -0.72930   2.39820  -1.16080    38    39    41    17
 C    -2.00750   1.87260  -1.42150    39    21    40    38
 C    -2.07920   0.68980  -2.13750    40    26    39    43
 C     0.47420   1.96970  -1.75980    41    38    45    42
 C     0.37630   0.69940  -2.47930    42    43    36    41
 C    -0.88340   0.08580  -2.54120    43    40    42    32
 C     2.84690   1.50750  -1.30760    44    37    46    45
 C     1.70040   2.22940  -1.10510    45    44    41    15
 C     3.56560   1.28910  -0.17710    46    18    44    48
 C     3.33000  -0.66620  -1.10170    47    37    48    30
 C     3.82120  -0.03370   0.01170    48    46    47     9
