    48
C48-C2-107                                                                      
 C    -0.64040   2.73880   0.11990     1     7    26     4
 C    -2.98830   1.36770   0.49960     2     6    27     3
 C    -2.03770   1.47070   1.58410     3     4     5     2
 C    -0.87980   2.23040   1.37670     4     1     3    11
 C    -1.82010   0.28540   2.33220     5    48     3    12
 C    -3.78920   0.22760   0.29550     6    32    47     2
 C     0.66290   2.75110  -0.12830     7     1     8    19
 C     1.38120   2.38850   0.95030     8     7     9    11
 C     2.59290   1.79490   0.77130     9     8    10    15
 C     2.94500   0.78900   1.64840    10    17     9    14
 C     0.41100   1.94520   1.87450    11    13     8     4
 C    -0.47780  -0.07980   2.62690    12    13    46     5
 C     0.65550   0.72220   2.52670    13    12    14    11
 C     1.91070   0.13900   2.31570    14    10    13    39
 C     3.02450   1.40580  -0.53120    15    16     9    18
 C     3.79300   0.25390  -0.29910    16    17    20    15
 C     3.71470  -0.09140   1.00640    17    10    40    16
 C     2.05950   1.50320  -1.60040    18    19    22    15
 C     0.89520   2.25680  -1.39100    19     7    18    25
 C     3.44630  -0.85920  -1.00650    20    21    16    41
 C     2.49120  -0.81350  -1.93540    21    20    30    22
 C     1.79850   0.30620  -2.30930    22    21    23    18
 C     0.47420  -0.07920  -2.61270    23    24    22    31
 C    -0.64970   0.73230  -2.50740    24    23    28    25
 C    -0.40650   1.96380  -1.86430    25    26    24    19
 C    -1.38740   2.40260  -0.95260    26     1    27    25
 C    -2.59090   1.79140  -0.80130    27    26    29     2
 C    -1.91540   0.15200  -2.30870    28    29    24    37
 C    -2.97680   0.78710  -1.65760    29    32    27    28
 C     1.57230  -1.77140  -1.72540    30    21    31    44
 C     0.35210  -1.43010  -2.18380    31    30    36    23
 C    -3.73320  -0.10330  -1.02220    32    29    33     6
 C    -3.15220  -1.31340  -1.13440    33    32    34    37
 C    -3.00200  -1.79800   0.11350    34    33    38    47
 C    -0.65450  -2.52320  -0.30040    35    38    43    36
 C    -0.82280  -1.92060  -1.63660    36    31    37    35
 C    -2.01590  -1.22490  -1.91620    37    33    36    28
 C    -1.78370  -2.31290   0.51540    38    45    34    35
 C     2.02130  -1.22560   1.90760    39    40    42    14
 C     3.16070  -1.31490   1.12410    40    17    41    39
 C     3.01680  -1.83870  -0.11040    41    40    44    20
 C     0.81930  -1.91600   1.62530    42    46    39    43
 C     0.67790  -2.53950   0.29390    43    44    35    42
 C     1.81230  -2.37660  -0.51840    44    30    41    43
 C    -1.58380  -1.74370   1.74300    45    46    48    38
 C    -0.35660  -1.42250   2.17690    46    45    42    12
 C    -3.47860  -0.87770   1.03740    47    48     6    34
 C    -2.54670  -0.82760   1.99200    48    47    45     5
