    48
C48-C1-10                                                                       
 C    -1.16430   1.21230  -1.92090     1     2    30     6
 C    -2.50810   0.95440  -1.65470     2     3    29     1
 C    -3.05450  -0.31000  -1.72770     3     9    13     2
 C     1.65640   1.44090  -1.94100     4     5     7    31
 C     1.08210   0.29540  -2.37830     5     4    41     6
 C    -0.31400   0.12750  -2.38980     6     5    12     1
 C     2.91590   1.28990  -1.44460     7     4    36    45
 C     3.71980   0.16250   0.87390     8    35    47    44
 C    -4.03800  -0.42130  -0.79960     9     3    15    11
 C    -2.41430  -1.95680  -0.43600    10    11    19    13
 C    -3.53530  -1.34050   0.07190    11     9    17    10
 C    -0.81690  -1.18950  -2.10790    12    13    14     6
 C    -2.12570  -1.30890  -1.67280    13     3    12    10
 C     0.15670  -2.05340  -1.60340    14    12    42    18
 C    -4.22600   0.75880  -0.15260    15    16     9    29
 C    -3.88130   0.52730   1.13180    16    15    20    17
 C    -3.41230  -0.74030   1.29200    17    16    11    24
 C    -0.12790  -2.60390  -0.32660    18    37    19    14
 C    -1.30510  -2.32190   0.33250    19    18    10    23
 C    -2.80160   1.28520   1.46020    20    16    25    32
 C    -0.10650   2.08790   1.26510    21    22    33    27
 C     1.24310   2.29500   1.03880    22    40    34    21
 C    -1.12120  -1.64940   1.61720    23    24    28    19
 C    -2.16580  -0.75620   1.89900    24    17    23    25
 C    -1.79100   0.58500   2.07550    25    20    27    24
 C     0.57510  -0.00110   2.38030    26    39    27    28
 C    -0.46430   0.96260   2.12080    27    25    26    21
 C     0.22580  -1.38870   2.04360    28    38    23    26
 C    -3.21770   1.57170  -0.63220    29    32    15     2
 C    -0.47020   2.18930  -1.10520    30    31    33     1
 C     0.90040   2.30820  -1.20570    31     4    34    30
 C    -2.38260   2.02190   0.36720    32    33    29    20
 C    -1.05940   2.35920   0.20520    33    32    30    21
 C     1.77020   2.61050  -0.19530    34    31    22    36
 C     3.34780   1.47740   0.82020    35    36     8    40
 C     3.04180   2.09190  -0.34470    36    35     7    34
 C     1.07560  -2.67260   0.26620    37    18    43    38
 C     1.31550  -2.12050   1.50230    38    37    48    28
 C     1.93460   0.37180   2.22780    39    40    47    26
 C     2.23410   1.56030   1.61880    40    22    39    35
 C     2.05310  -0.67210  -2.08030    41    42     5    45
 C     1.54190  -1.88100  -1.65040    42    43    41    14
 C     2.12400  -2.41920  -0.54330    43    46    37    42
 C     3.70750  -0.66610  -0.27210    44    46     8    45
 C     3.18500  -0.07150  -1.45040    45     7    44    41
 C     3.11600  -1.83980   0.15820    46    43    48    44
 C     2.95490  -0.47160   1.83400    47    48    39     8
 C     2.62520  -1.68850   1.43670    48    47    46    38
