    48
C48-C2-185                                                                      
 C    -1.80540  -2.19840   1.06970     1     2     3    30
 C    -1.91000  -1.30530   2.08380     2     1    25     7
 C    -0.57540  -2.76440   0.83150     3     1    47     8
 C    -1.07050   0.56330   2.70000     4     5    27     7
 C    -0.15250   1.51480   2.37760     5     4     6    13
 C     1.22350   1.18730   2.24260     6    15     5    10
 C    -0.78500  -0.77330   2.70780     7     4     2     9
 C     0.55600  -2.37920   1.61060     8    44     3     9
 C     0.51500  -1.22200   2.46570     9     7     8    10
 C     1.60190  -0.23990   2.31250    10    11     9     6
 C     2.71990  -0.63680   1.49910    11    45    12    10
 C     3.30230   0.25810   0.62310    12    14    43    11
 C    -0.86280   2.40630   1.51340    13    17    20     5
 C     2.92230   1.51700   0.53790    14    12    15    35
 C     1.92190   2.01710   1.32790    15    14    16     6
 C     1.19840   2.80390   0.45510    16    17    23    15
 C    -0.13860   2.94310   0.47470    17    16    13    21
 C    -2.63190   1.77350   0.00140    18    20    19    28
 C    -1.80730   2.20870  -1.05970    19    22    21    18
 C    -2.14650   1.89320   1.31220    20    27    13    18
 C    -0.57260   2.77440  -0.84540    21    19    17    24
 C    -1.90610   1.31010  -2.06940    22    19    29    39
 C     1.64520   2.60030  -0.81340    23    35    24    16
 C     0.56580   2.40340  -1.61700    24    23    21    38
 C    -2.81290  -0.35250   1.72230    25    27     2    26
 C    -3.24990  -0.54820   0.43950    26    25    28    30
 C    -2.28320   0.81630   2.12530    27    25    20     4
 C    -3.24030   0.55520  -0.43810    28    29    26    18
 C    -2.79710   0.34540  -1.71470    29    32    22    28
 C    -2.63170  -1.76490   0.01230    30    31     1    26
 C    -2.13560  -1.88700  -1.29420    31    32    30    46
 C    -2.25770  -0.81730  -2.11680    32    29    31    33
 C    -1.06110  -0.55950  -2.69830    33    32    34    39
 C    -0.14670  -1.51200  -2.36850    34    33    41    46
 C     2.69690   1.80120  -0.78500    35    23    14    36
 C     2.74800   0.63550  -1.51490    36    35    43    37
 C     1.60570   0.24550  -2.30550    37    36    38    41
 C     0.51580   1.23490  -2.45720    38    39    24    37
 C    -0.77990   0.77950  -2.69950    39    33    38    22
 C     1.95170  -2.02820  -1.33640    40    42    48    41
 C     1.23380  -1.18630  -2.23260    41    40    34    37
 C     2.95650  -1.53060  -0.54000    42    43    45    40
 C     3.33810  -0.27190  -0.64730    43    42    12    36
 C     1.62510  -2.58900   0.79470    44    45    48     8
 C     2.68070  -1.80430   0.77700    45    44    42    11
 C    -0.85160  -2.41470  -1.50350    46    47    31    34
 C    -0.12230  -2.96700  -0.48220    47    48    46     3
 C     1.20940  -2.83370  -0.47440    48    47    44    40
