    48
C48-C1-162                                                                      
 C     3.07570   0.46180   1.16160     1     2     4     3
 C     3.22260  -0.82510   0.69950     2     1    32     8
 C     2.01630   0.74130   2.02520     3     1     9    48
 C     3.29100   1.25550   0.04200     4    46    31     1
 C     2.03550  -2.42990  -0.12850     5     6    28     8
 C     0.78330  -2.84290  -0.44230     6     5     7    14
 C    -0.20710  -2.90180   0.51330     7     6    15    11
 C     2.33980  -1.82090   1.07930     8     2     5    10
 C     1.15460  -0.27250   2.48500     9     3    43    10
 C     1.29530  -1.61950   1.99710    10     8    11     9
 C     0.06340  -2.26740   1.75310    11    17    10     7
 C    -0.80540  -1.88400  -1.93860    12    14    21    13
 C    -1.87500  -2.23530  -1.09210    13    27    15    12
 C     0.49160  -2.21960  -1.66920    14    12    20     6
 C    -1.54540  -2.66990   0.18070    15    16    13     7
 C    -2.10770  -1.96510   1.22050    16    17    15    39
 C    -1.13230  -1.70210   2.10730    17    16    44    11
 C     1.35430  -0.05580  -2.41830    18    30    20    19
 C    -0.03010   0.36510  -2.58020    19    21    18    25
 C     1.58040  -1.41690  -2.00650    20    28    14    18
 C    -1.06610  -0.61670  -2.47880    21    22    12    19
 C    -2.33990  -0.33680  -2.07520    22    23    27    21
 C    -2.72490   0.87180  -1.68150    23    22    24    36
 C    -1.77660   1.85670  -1.63800    24    23    33    25
 C    -0.44710   1.69270  -2.09360    25    26    24    19
 C     0.54390   2.38880  -1.37950    26    29    25    35
 C    -2.83570  -1.25800  -1.21150    27    22    13    40
 C     2.62240  -1.72750  -1.14170    28    32     5    20
 C     1.83580   1.99420  -1.36860    29    26    46    30
 C     2.34210   0.84060  -1.90840    30    29    31    18
 C     3.40460   0.45520  -1.07200    31    32     4    30
 C     3.47710  -0.81350  -0.66060    32    31    28     2
 C    -2.00710   2.39880  -0.37780    33    34    37    24
 C    -0.97670   2.78490   0.41560    34    33    35    45
 C     0.29340   2.91810  -0.07760    35    34    47    26
 C    -3.46210   0.74650  -0.52680    36    37    23    40
 C    -2.95360   1.69090   0.30020    37    36    33    41
 C    -2.43950   0.08030   1.94900    38    41    44    39
 C    -3.00660  -0.91900   1.10030    39    16    40    38
 C    -3.49230  -0.59540  -0.16620    40    36    39    27
 C    -2.40080   1.41770   1.52920    41    37    38    45
 C    -0.06810   1.62070   2.27860    42    48    45    43
 C    -0.11300   0.29840   2.72030    43    44    42     9
 C    -1.27830  -0.43210   2.56270    44    17    43    38
 C    -1.19880   2.13760   1.64750    45    42    41    34
 C     2.41000   2.25220  -0.15850    46     4    47    29
 C     1.42980   2.66270   0.68680    47    46    35    48
 C     1.22590   1.89740   1.84080    48    42    47     3
