    48
C48-C1-94                                                                       
 C     3.54190  -0.22880  -0.55930     1    29     6     4
 C     2.36000  -1.17220   1.63860     2     5     3    27
 C     2.86110   0.11690   1.64130     3     2     4    47
 C     3.64810   0.54380   0.57950     4     8     1     3
 C     1.14670  -1.37650   2.20320     5    31     2    45
 C     2.96540   0.57470  -1.52000     6     7    15     1
 C     2.77890   1.79910  -0.96800     7     8     6    11
 C     3.24650   1.79440   0.29050     8    12     7     4
 C    -0.82820   2.05180  -1.52530     9    20    10    25
 C     0.50480   1.79400  -1.87350    10     9    11    14
 C     1.49730   2.29710  -1.01210    11     7    10    13
 C     2.22410   2.15250   1.07730    12     8    47    13
 C     1.14880   2.60870   0.33610    13    12    24    11
 C     0.77570   0.54030  -2.55610    14    17    15    10
 C     2.01160  -0.08820  -2.22580    15     6    16    14
 C     2.05430  -1.42110  -1.74780    16    19    29    15
 C    -0.34650  -0.29700  -2.72020    17    18    21    14
 C    -0.22240  -1.60660  -2.33950    18    32    19    17
 C     0.87670  -2.13600  -1.75810    19    18    16    30
 C    -1.93630   1.28460  -1.91010    20    22    21     9
 C    -1.67040   0.03910  -2.42990    21    20    17    39
 C    -2.92890   1.42950  -0.99220    22    26    20    23
 C    -3.68630   0.40440  -0.47400    23    40    22    38
 C    -0.16780   2.54450   0.76610    24    13    25    41
 C    -1.16700   2.54860  -0.23020    25    26    24     9
 C    -2.45110   2.18940   0.02680    26    43    25    22
 C     2.40230  -2.02870   0.50700    27    29    28     2
 C     1.16890  -2.71800   0.49980    28    31    30    27
 C     2.92760  -1.45760  -0.64840    29     1    27    16
 C     0.39530  -2.83080  -0.64300    30    28    19    33
 C     0.45230  -2.34360   1.59310    31     5    28    36
 C    -1.36310  -1.99460  -1.73450    32    18    39    33
 C    -1.01780  -2.68660  -0.59500    33    32    35    30
 C    -2.85230  -1.46470   0.44060    34    37    35    38
 C    -1.73290  -2.32920   0.57870    35    36    33    34
 C    -0.88700  -2.10010   1.68260    36    31    35    44
 C    -3.09180  -0.47690   1.40900    37    40    48    34
 C    -3.24060  -0.86830  -0.79900    38    39    23    34
 C    -2.34780  -1.06020  -1.83920    39    32    38    21
 C    -3.64960   0.61450   0.85960    40    37    23    43
 C    -0.48360   1.75040   1.96080    41    42    46    24
 C    -1.83790   1.27900   2.03880    42    43    48    41
 C    -2.86240   1.66730   1.20090    43    26    40    42
 C    -0.99780  -0.91760   2.44320    44    48    45    36
 C     0.28000  -0.41340   2.65380    45     5    44    46
 C     0.61810   0.94010   2.43670    46    45    47    41
 C     1.94160   1.16140   1.99150    47    12    46     3
 C    -2.05950  -0.10740   2.24930    48    44    37    42
