    48
C48-Cs-62                                                                       
 C     1.03820   2.15000  -1.65740     1     4     2    28
 C     0.91800   1.10600  -2.52950     2     3     1    15
 C    -0.32870   0.65040  -2.79390     3     5     2    27
 C     2.08280   2.17550  -0.80900     4    32     1    13
 C    -0.32130  -0.68210  -2.81930     5     3     7     6
 C    -1.49740  -1.12680  -2.26870     6     5    10    17
 C     0.93570  -1.12830  -2.55830     7     5     8    15
 C     1.04640  -2.16310  -1.67990     8    12     7     9
 C    -0.11910  -2.56540  -0.96920     9    10    41     8
 C    -1.41980  -2.11730  -1.26390    10    11     9     6
 C    -2.32680  -1.99410  -0.21030    11    18    10    21
 C     2.08540  -2.17760  -0.82180    12    40     8    16
 C     3.05360   1.19550  -0.65910    13     4    46    14
 C     2.86440  -0.00230  -1.41950    14    13    16    15
 C     1.79090  -0.00470  -2.37040    15     2     7    14
 C     3.06360  -1.20360  -0.66460    16    12    48    14
 C    -2.32860  -0.00440  -2.05230    17    19    27     6
 C    -3.38610  -1.08990  -0.20790    18    20    11    19
 C    -3.26780   0.00650  -1.05880    19    17    23    18
 C    -3.65740  -0.67160   1.05010    20    24    22    18
 C    -1.84140  -1.99750   1.13020    21    22    42    11
 C    -2.61460  -1.08270   1.79510    22    20    21    37
 C    -3.38420   1.08990  -0.19990    23    24    19    25
 C    -3.65490   0.66610   1.05380    24    20    29    23
 C    -2.32700   1.99940  -0.19570    25    23    26    30
 C    -1.41680   2.11130  -1.25440    26    25    28    27
 C    -1.49580   1.11600  -2.25120    27     3    17    26
 C    -0.12220   2.57100  -0.95020    28    26    35     1
 C    -2.61420   1.10360   1.79340    29    24    30    37
 C    -1.84300   2.03020   1.14740    30    29    34    25
 C     2.33360   1.92640   1.29820    31    32    36    46
 C     1.64720   2.60490   0.38770    32    31     4    35
 C     0.18640   1.24890   2.26940    33    36    38    34
 C    -0.49990   2.23350   1.41990    34    30    35    33
 C     0.30160   2.76280   0.38780    35    32    34    28
 C     1.59450   1.16800   2.17130    36    39    31    33
 C    -1.92060   0.00530   2.30710    37    22    38    29
 C    -0.53930  -0.00100   2.51220    38    37    45    33
 C     2.29120  -0.00600   2.20350    39    36    44    47
 C     1.65500  -2.58420   0.38310    40    43    12    41
 C     0.30380  -2.72960   0.37120    41    40    42     9
 C    -0.49640  -2.19890   1.40920    42    21    41    45
 C     2.34550  -1.93230   1.30430    43    40    44    48
 C     1.60240  -1.18790   2.19010    44    39    43    45
 C     0.19850  -1.24430   2.28350    45    44    38    42
 C     3.33180   1.16610   0.71690    46    47    31    13
 C     3.40480  -0.01080   1.36900    47    48    46    39
 C     3.34740  -1.17920   0.71460    48    47    43    16
