    48
C48-C1-129                                                                      
 C    -0.53660  -2.69850   1.41530     1     2     3    31
 C    -1.80810  -2.58960   0.93700     2    33     1    16
 C    -0.21060  -1.65550   2.24110     3     1     8     4
 C     1.08770  -1.10560   2.25110     4     3     5    11
 C     2.00970  -1.75450   1.37630     5     6    29     4
 C     3.01060  -1.03350   0.82450     6     7     5    24
 C     3.26410   0.26970   1.04150     7    18     6    12
 C    -1.37420  -0.88560   2.27920     8     9     3    16
 C    -1.25520   0.46060   2.42090     9    13     8    10
 C     0.00570   1.08080   2.41370    10     9    11    20
 C     1.20790   0.34220   2.35050    11    10    12     4
 C     2.28190   0.98980   1.68710    12     7    11    22
 C    -2.14090   1.27630   1.80230    13    43     9    17
 C    -2.92150  -0.87280  -0.84650    14    32    46    15
 C    -3.08470  -0.51610   0.54130    15    17    16    14
 C    -2.35840  -1.41190   1.39890    16     2     8    15
 C    -3.03400   0.85960   0.82600    17    13    48    15
 C     3.59380   0.82560  -0.13710    18    19     7    26
 C     2.82200   1.91040  -0.25600    19    18    42    22
 C    -0.17480   2.32050   1.74700    20    43    21    10
 C     0.81060   2.76200   0.83270    21    22    20    23
 C     2.05610   2.14790   0.88820    22    21    19    12
 C     0.26680   3.06230  -0.45950    23    45    41    21
 C     3.06850  -1.26890  -0.52000    24    25    26     6
 C     2.07100  -2.12560  -0.82620    25    24    29    27
 C     3.31370  -0.07710  -1.10770    26    24    18    34
 C     1.13030  -1.78010  -1.85680    27    28    25    35
 C    -0.11770  -2.41480  -1.75160    28    36    30    27
 C     1.55050  -2.65470   0.38550    29    31     5    25
 C    -0.49370  -3.22990  -0.68000    30    31    33    28
 C     0.29740  -3.16690   0.42710    31    29    30     1
 C    -2.26650  -2.03160  -1.20550    32    33    36    14
 C    -1.81020  -2.96010  -0.36150    33    32     2    30
 C     2.28180   0.42250  -1.87200    34    26    42    35
 C     1.17680  -0.37950  -2.32140    35    34    38    27
 C    -1.25750  -1.71070  -2.05020    36    39    32    28
 C    -0.17910   1.66430  -2.15970    37    40    41    38
 C    -0.08860   0.30300  -2.54020    38    39    37    35
 C    -1.30230  -0.40490  -2.37520    39    36    38    46
 C    -1.35130   2.17460  -1.65320    40    45    47    37
 C     0.85810   2.32610  -1.51450    41    42    37    23
 C     2.07170   1.74530  -1.41420    42    41    19    34
 C    -1.52770   2.42800   1.45820    43    44    13    20
 C    -2.02610   2.85730   0.28340    44    45    43    48
 C    -1.09240   3.07080  -0.65710    45    44    40    23
 C    -2.45420   0.13030  -1.73600    46    47    14    39
 C    -2.47980   1.44520  -1.38380    47    46    40    48
 C    -2.89140   1.85490  -0.13930    48    47    44    17
