    48
C48-C1-92                                                                       
 C    -1.00670  -1.41980  -2.17580     1     3     2    11
 C    -0.92230  -0.07920  -2.55170     2     6     4     1
 C    -2.07810  -1.86190  -1.42130     3    16     1    27
 C    -1.90400   0.80690  -2.11180     4     2     5    29
 C    -1.48330   2.06610  -1.65000     5    31     8     4
 C     0.41880   0.26170  -2.62110     6    12     2     7
 C     0.84710   1.50430  -2.15100     7     8    42     6
 C    -0.10840   2.34660  -1.59920     8     7     5    47
 C     1.87730  -2.39940  -0.24430     9    10    14    18
 C     0.63280  -2.65250  -0.81760    10    15     9    11
 C     0.31610  -1.84810  -1.95760    11    12     1    10
 C     1.20630  -0.84430  -2.34890    12    13     6    11
 C     2.46050  -0.73850  -1.79290    13    14    12    43
 C     2.88150  -1.64610  -0.84960    14    19    13     9
 C    -0.46160  -2.91960  -0.00690    15    16    10    25
 C    -1.77440  -2.70700  -0.37360    16    20    15     3
 C     3.01570  -1.17920   1.20940    17    36    19    18
 C     1.94590  -2.03750   1.13170    18    17    24     9
 C     3.64950  -0.99860   0.02670    19    14    17    39
 C    -2.50940  -2.34190   0.66260    20    16    26    21
 C    -3.28560  -1.30070   0.35880    21    20    22    27
 C    -3.01810  -0.33770   1.33670    22    23    21    33
 C    -3.04400   0.97780   0.96000    23    22    32    28
 C     0.73750  -1.84630   1.83960    24    25    18    38
 C    -0.40410  -2.48140   1.36000    25    26    24    15
 C    -1.67790  -2.07480   1.66160    26    20    33    25
 C    -3.08600  -0.96970  -0.98640    27    29    21     3
 C    -3.14600   1.36040  -0.37810    28    31    29    23
 C    -2.99070   0.37060  -1.33090    29    28    27     4
 C    -1.68420   2.74210   0.55230    30    31    46    32
 C    -2.29920   2.40340  -0.59950    31    30    28     5
 C    -2.06910   1.80080   1.46460    32    30    23    35
 C    -1.91920  -0.81120   2.12590    33    26    34    22
 C    -0.82180  -0.00080   2.50960    34    33    35    38
 C    -0.97570   1.37370   2.18300    35    32    45    34
 C     2.79610   0.04170   1.71690    36    17    37    40
 C     1.60110   0.38710   2.28130    37    36    48    38
 C     0.52650  -0.52900   2.46740    38    37    34    24
 C     3.72840   0.33090  -0.24180    39    19    40    43
 C     3.27530   1.00480   0.86450    40    44    39    36
 C     1.79690   2.41890  -0.35590    41    47    44    42
 C     2.06190   1.59760  -1.47980    42     7    43    41
 C     2.95510   0.52680  -1.38720    43    39    42    13
 C     2.33720   1.99320   0.86820    44    40    41    48
 C     0.09010   2.17200   1.76530    45    48    35    46
 C    -0.34170   2.95360   0.68220    46    30    47    45
 C     0.48520   2.88280  -0.43790    47    41    46     8
 C     1.36750   1.70350   1.84620    48    45    37    44
