    48
C48-D2-198                                                                      
 C     2.23240   2.34740  -0.69920     1     2    25     6
 C     1.69800   2.81230   0.45340     2     1     7     3
 C     2.06260   1.92580   1.41320     3     2    28    14
 C     0.08690   2.42770  -1.68700     4     6    17     5
 C    -0.40210   3.17570  -0.58010     5     9     7     4
 C     1.39350   1.99030  -1.72910     6     1     4    20
 C     0.39430   3.15930   0.56810     7     2     5     8
 C    -0.08750   2.42540   1.68690     8    11    14     7
 C    -1.70740   2.82700  -0.45770     9     5    10    18
 C    -2.24460   2.34980   0.69540    10    43     9    11
 C    -1.39940   1.99900   1.72090    11    10     8    47
 C     1.72160  -0.68650   2.10450    12    32    27    13
 C     0.68520   0.23030   2.50280    13    14    12    46
 C     0.93950   1.58370   2.14080    14     3     8    13
 C    -1.71250  -0.68650  -2.10800    15    40    37    16
 C    -0.67610   0.22900  -2.50160    16    17    15    19
 C    -0.93560   1.57780  -2.12980    17    18     4    16
 C    -2.05970   1.91870  -1.41140    18    36     9    17
 C     0.69150  -0.23040  -2.50300    19    22    20    16
 C     1.72350   0.68790  -2.11980    20     6    21    19
 C     2.85230   0.28970  -1.34800    21    24    25    20
 C     0.94080  -1.57980  -2.12490    22    23    41    19
 C     2.06580  -1.91380  -1.40100    23    30    24    22
 C     2.97140  -1.00670  -0.93450    24    23    21    26
 C     3.03800   1.29620  -0.42230    25     1    21    28
 C     3.04750  -1.30020   0.42770    26    29    27    24
 C     2.86100  -0.28190   1.34140    27    28    26    12
 C     2.97700   1.01740   0.94710    28    27     3    25
 C     2.24660  -2.34650   0.70210    29    26    30    32
 C     1.70080  -2.82170  -0.45250    30    33    29    23
 C     0.08710  -2.42690   1.67700    31    32    45    35
 C     1.39570  -2.00070   1.71920    32    29    31    12
 C     0.39860  -3.16490  -0.56880    33    30    35    41
 C    -1.72240  -2.82810   0.44330    34    35    39    48
 C    -0.41890  -3.16610   0.56760    35    34    33    31
 C    -2.95940   1.01210  -0.93800    36    18    37    43
 C    -2.84290  -0.29120  -1.33450    37    36    38    15
 C    -3.05440  -1.29330  -0.41730    38    39    37    44
 C    -2.25560  -2.34750  -0.71060    39    38    34    40
 C    -1.39810  -2.00260  -1.72790    40    39    41    15
 C    -0.09060  -2.42680  -1.68990    41    40    22    33
 C    -2.83950   0.29120   1.34500    42    44    43    47
 C    -3.04910   1.29310   0.42510    43    10    42    36
 C    -2.96030  -1.01580   0.94890    44    48    42    38
 C    -0.93640  -1.58160   2.12850    45    48    31    46
 C    -0.68480  -0.23060   2.50620    46    45    47    13
 C    -1.71550   0.69260   2.12420    47    11    42    46
 C    -2.06000  -1.92710   1.41130    48    44    34    45
