    48
C48-C1-146                                                                      
 C     3.02600   0.70290  -1.19170     1    26     2     6
 C     3.21790  -0.36290  -0.34690     2     3     1    14
 C     2.70830  -1.57780  -0.67060     3     2     7     4
 C     1.71950  -1.64060  -1.70470     4    11     5     3
 C     1.22050  -0.47800  -2.33910     5     4     6    10
 C     1.95390   0.70580  -2.08140     6     1    30     5
 C     2.25850  -2.45860   0.27930     7     8     3    12
 C     1.27480  -3.19960  -0.18430     8     7    20    11
 C    -0.77410   0.91020  -2.48490     9    44    29    10
 C    -0.21710  -0.40880  -2.55470    10     9     5    47
 C     0.88250  -2.66100  -1.34830    11     8    48     4
 C     1.81720  -1.89930   1.48120    12     7    13    16
 C     2.17680  -0.58570   1.83460    13    12    15    14
 C     3.02560   0.15220   0.96500    14    23    13     2
 C     1.16380   0.16410   2.47650    15    19    13    21
 C     0.48950  -2.41610   1.67250    16    20    18    12
 C    -1.82240  -1.67030   1.61990    17    43    39    18
 C    -0.51930  -1.61230   2.22010    18    19    16    17
 C    -0.13500  -0.34920   2.68310    19    25    18    15
 C     0.21180  -3.26030   0.59050    20     8    41    16
 C     1.02770   1.55300   2.22070    21    24    22    15
 C     1.83300   2.19030   1.32520    22    21    23    27
 C     2.90520   1.52420   0.79490    23    26    22    14
 C    -0.30440   1.79860   2.22280    24    25    21    32
 C    -0.99880   0.70780   2.56820    25    24    40    19
 C     2.98270   1.84480  -0.49380    26    28    23     1
 C     1.18070   2.90230   0.26290    27    28    33    22
 C     1.94460   2.59000  -0.86140    28    26    30    27
 C    -0.03150   2.01220  -2.02760    29    30     9    31
 C     1.31330   1.94720  -1.90360    30    29    28     6
 C    -0.81240   2.67620  -1.04640    31    34    33    29
 C    -1.01240   2.50920   1.28570    32    24    33    35
 C    -0.23550   3.00160   0.20500    33    31    32    27
 C    -2.04780   2.09470  -1.11860    34    44    31    37
 C    -2.26420   1.85010   1.17220    35    37    32    40
 C    -3.42270   0.51450  -0.44020    36    38    45    37
 C    -2.87250   1.73010  -0.07170    37    34    36    35
 C    -3.32760  -0.58920   0.33480    38    36    42    39
 C    -2.68640  -0.53760   1.54960    39    38    40    17
 C    -2.22230   0.68910   1.99300    40    25    39    35
 C    -0.93250  -3.04130  -0.13650    41    43    20    48
 C    -2.81120  -1.63140  -0.36300    42    43    38    46
 C    -1.99910  -2.39190   0.40340    43    42    41    17
 C    -2.04370   1.09510  -2.03180    44    45    34     9
 C    -2.86140   0.12650  -1.63730    45    44    46    36
 C    -2.40310  -1.16110  -1.61770    46    45    42    47
 C    -1.10190  -1.49440  -2.08450    47    48    46    10
 C    -0.47530  -2.56320  -1.41710    48    11    47    41
