    48
C48-C2-95                                                                       
 C     3.15420  -1.84640  -0.38730     1     7     3    27
 C     2.07240  -0.75350  -1.98280     2     3    45    28
 C     2.19920  -1.94730  -1.32290     3     1     2    40
 C     2.69950  -1.10940   1.55140     4     7     5    29
 C     1.64400  -0.55040   2.22270     5     4    10     6
 C     0.35750  -1.16830   2.25820     6     5    12     9
 C     2.55020  -2.18980   0.75810     7     1     4     8
 C     1.28310  -2.65300   0.53920     8     7     9    40
 C     0.19570  -2.32490   1.37060     9    20     8     6
 C     1.80290   0.83680   2.10340    10    14     5    24
 C    -2.05990  -0.74490   1.98970    11    21    12    15
 C    -0.79360  -0.31710   2.45770    12    13    11     6
 C    -0.57280   1.07640   2.41050    13    17    14    12
 C     0.68610   1.62800   2.15680    14    10    13    25
 C    -3.03240   0.11640   1.38310    15    16    18    11
 C    -2.60550   1.41340   1.17420    16    17    15    33
 C    -1.48560   1.88230   1.77040    17    26    16    13
 C    -3.65670  -0.59110   0.37340    18    19    37    15
 C    -3.14870  -1.84490   0.39710    19    21    38    18
 C    -1.06580  -2.55200   0.85080    20    21     9    42
 C    -2.19020  -1.93820   1.32640    21    19    20    11
 C     2.54660   1.94880   0.15830    22    24    23    30
 C     1.41480   2.77850   0.21980    23    32    25    22
 C     2.85960   1.06450   1.20110    24    29    22    10
 C     0.51810   2.70150   1.27340    25    26    23    14
 C    -0.83070   2.79120   1.03220    26    17    25    34
 C     3.67090  -0.59560  -0.36060    27     1    29    28
 C     3.03880   0.11560  -1.37430    28    30    27     2
 C     3.44260  -0.13650   0.91040    29    24    27     4
 C     2.60600   1.40510  -1.15470    30    31    28    22
 C     1.48100   1.86360  -1.74900    31    32    30    44
 C     0.80780   2.76540  -1.01750    32    31    35    23
 C    -2.55680   1.96290  -0.14290    33    36    34    16
 C    -1.43410   2.80420  -0.21140    34    26    35    33
 C    -0.53960   2.68640  -1.26240    35    32    34    43
 C    -2.82740   1.05860  -1.17730    36    37    33    46
 C    -3.40640  -0.15060  -0.90240    37    36    18    39
 C    -2.56830  -2.18660  -0.76550    38    19    39    42
 C    -2.71130  -1.12190  -1.58010    39    38    47    37
 C     1.06200  -2.56650  -0.87200    40     3    41     8
 C    -0.20250  -2.33310  -1.38930    41    40    42    48
 C    -1.29280  -2.66330  -0.55920    42    38    41    20
 C    -0.68000   1.61260  -2.15330    43    46    44    35
 C     0.57720   1.05810  -2.41010    44    31    43    45
 C     0.80170  -0.33810  -2.46200    45    44     2    48
 C    -1.79280   0.81280  -2.10360    46    43    47    36
 C    -1.65620  -0.57830  -2.25960    47    39    46    48
 C    -0.36290  -1.17950  -2.28470    48    47    45    41
