    48
C48-C1-35                                                                       
 C    -2.94990  -1.98000  -0.21210     1     4    29     7
 C     0.99410  -2.68080  -0.41390     2     3    36    16
 C    -0.32360  -2.62840  -0.56080     3     2     6    30
 C    -3.86400  -1.01450   0.04690     4     5     1    23
 C    -3.86690  -0.12520  -0.96250     5     4     8    10
 C    -0.90830  -1.85560  -1.57090     6     7     3    18
 C    -2.26850  -1.61440  -1.39480     7     8     6     1
 C    -2.84480  -0.44240  -1.79050     8     5     7    20
 C    -2.50970   1.62000  -1.21950     9    11    10    20
 C    -3.56050   1.09670  -0.45830    10     5     9    22
 C    -1.59880   2.44880  -0.65200    11     9    25    12
 C    -0.26860   2.51930  -1.04090    12    11    44    14
 C     1.67750   1.38520  -1.83660    13    15    14    21
 C     0.28690   1.54200  -1.93010    14    13    12    19
 C     2.49140   2.15230  -0.99230    15    45    43    13
 C     1.94900  -2.06240  -1.15600    16     2    46    17
 C     1.44740  -1.00060  -1.96750    17    21    16    18
 C     0.00760  -0.87010  -2.15240    18    17    19     6
 C    -0.59140   0.46010  -2.26710    19    20    14    18
 C    -1.98360   0.59350  -2.02930    20     8     9    19
 C     2.31300   0.12850  -1.95230    21    13    48    17
 C    -3.30050   0.94400   0.91690    22    24    23    10
 C    -3.40540  -0.39800   1.16570    23     4    22    28
 C    -2.23130   1.60740   1.44910    24    25    22    26
 C    -1.56250   2.54480   0.72100    25    37    24    11
 C    -1.18790   0.95820   2.15950    26    38    27    24
 C    -1.15220  -0.45100   2.26280    27    26    28    32
 C    -2.30940  -1.07870   1.69880    28    23    29    27
 C    -2.12780  -2.18880   0.86480    29    30     1    28
 C    -0.88360  -2.65320   0.73460    30    29    33     3
 C     1.39790  -0.31190   2.17580    31    34    39    32
 C     0.14520  -1.08650   2.23080    32    33    27    31
 C     0.20150  -2.35210   1.54920    33    36    30    32
 C     2.56520  -0.91650   1.58420    34    35    42    31
 C     2.52060  -2.11410   0.92770    35    36    34    46
 C     1.33910  -2.68060   0.89250    36    35     2    33
 C    -0.30280   2.68260   1.09400    37    25    44    38
 C     0.00620   1.67560   1.99030    38    37    39    26
 C     1.28500   1.12350   1.99700    39    38    40    31
 C     2.25390   1.76270   1.15600    40    41    43    39
 C     3.32310   1.10930   0.63400    41    42    45    40
 C     3.46700  -0.19880   0.83190    42    41    34    47
 C     1.82180   2.62170   0.11070    43    44    15    40
 C     0.52670   2.92890   0.04780    44    43    37    12
 C     3.52890   1.37210  -0.67930    45    15    48    41
 C     3.07610  -1.93190  -0.32720    46    47    35    16
 C     3.80170  -0.80950  -0.37500    47    46    48    42
 C     3.57440   0.17090  -1.29660    48    45    47    21
