    48
C48-C1-9                                                                        
 C    -2.31320  -1.95000  -1.25460     1     2    39    11
 C    -1.93740  -0.80610  -1.90750     2     1    37     8
 C    -1.21090   1.79210  -1.76130     3     4    35     9
 C    -0.87530   2.86260  -0.94940     4    17    23     3
 C     1.19270   1.22270  -1.85980     5     6     9    22
 C     2.17020   0.22280  -1.90620     6    24    10     5
 C     0.41010  -1.43610  -1.75450     7    10     8    12
 C    -0.58750  -0.49050  -2.15730     8     2     7     9
 C    -0.18260   0.89350  -2.14010     9     3     5     8
 C     1.74110  -1.10160  -1.78250    10     7    13     6
 C    -1.32610  -2.55100  -0.50580    11    12     1    14
 C     0.01810  -2.37110  -0.72460    12    11    15     7
 C     2.71860  -1.71460  -1.03450    13    44    10    16
 C    -1.87310  -2.66650   0.75830    14    38    46    11
 C     0.94100  -2.42580   0.38320    15    16    12    47
 C     2.28340  -2.17750   0.18500    16    13    15    48
 C    -1.88010   2.90800  -0.06450    17    19    25     4
 C     0.05140   2.53440   0.97270    18    19    31    23
 C    -1.29900   2.51290   1.06170    19    17    18    29
 C     3.64140   1.16800  -0.32720    20    24    43    21
 C     2.57370   2.00600  -0.06470    21    20    22    30
 C     1.48540   2.28700  -0.90920    22    23    21     5
 C     0.36580   2.87160  -0.37910    23     4    22    18
 C     3.41890   0.25370  -1.31420    24    44    20     6
 C    -2.91580   2.10760  -0.32310    25    17    26    35
 C    -3.11350   1.27470   0.77470    26    27    25    29
 C    -3.61880   0.01640   0.59790    27    26    28    36
 C    -3.07440  -1.02230   1.34040    28    38    27    34
 C    -1.97320   1.46250   1.59970    29    19    33    26
 C     2.17130   1.57270   1.23330    30    40    31    21
 C     0.85790   1.63550   1.64310    31    30    18    32
 C     0.20620   0.45490   2.18220    32    33    31    42
 C    -1.23320   0.38280   2.13500    33    34    29    32
 C    -1.84490  -0.86010   1.97230    34    28    33    46
 C    -2.53410   1.40010  -1.46290    35    37    25     3
 C    -3.80690  -0.53690  -0.68130    36    39    37    27
 C    -2.94590   0.10460  -1.58560    37    35     2    36
 C    -3.15200  -2.20350   0.66180    38    39    14    28
 C    -3.50220  -1.85760  -0.57840    39    38    36     1
 C     3.01540   0.54970   1.52650    40    43    30    41
 C     2.38950  -0.65350   1.78920    41    40    48    42
 C     1.01210  -0.74760   2.05540    42    41    47    32
 C     4.09140   0.40000   0.71750    43    40    45    20
 C     3.83370  -0.96460  -0.86970    44    13    45    24
 C     4.21880  -0.92550   0.43430    45    44    43    48
 C    -1.07410  -1.97640   1.64310    46    14    47    34
 C     0.30210  -1.89740   1.57320    47    46    42    15
 C     3.16270  -1.55890   1.06130    48    45    16    41
