    48
C48-C2-1                                                                        
 C     4.50800  -0.62660   0.03610     1     8     2    17
 C     3.57210  -1.64760  -0.07110     2    32     4     1
 C     1.38130  -1.73100  -1.21440     3     4    11     5
 C     2.76330  -1.43490  -1.17790     4     9     2     3
 C     0.70650  -2.26910  -0.04230     5    31    33     3
 C    -2.78540  -1.70110  -1.03400     6    36    46     7
 C    -1.46250  -2.00050  -1.06320     7     6    33    10
 C     4.37740   0.16060  -1.06240     8     1    12     9
 C     3.28320  -0.29090  -1.76430     9     8    14     4
 C    -0.85100  -1.09230  -1.92660    10    11     7    25
 C     0.50130  -0.88320  -1.95700    11    10    13     3
 C     3.95330   1.37610  -0.60860    12    15    16     8
 C     0.96210   0.45870  -2.12600    13    14    11    27
 C     2.32010   0.67850  -1.95510    14    15     9    13
 C     2.77190   1.72190  -1.18110    15    12    29    14
 C     3.67090   1.33300   0.71990    16    12    17    19
 C     4.06300   0.08830   1.15430    17    18    16     1
 C     3.06390  -0.60670   1.74550    18    17    32    24
 C     2.36420   1.78580   0.95620    19    16    29    23
 C    -1.82180   2.09870   0.28410    20    40    21    30
 C    -0.46230   2.10340   0.53690    21    20    28    22
 C     0.03400   1.40270   1.70460    22    23    42    21
 C     1.42130   1.16590   1.80270    23    24    19    22
 C     1.83480  -0.13430   2.14960    24    18    38    23
 C    -1.83330  -0.12700  -2.14830    25    46    10    26
 C    -1.41510   1.16920  -1.79640    26    25    27    30
 C    -0.03110   1.40620  -1.68320    27    26    13    28
 C     0.46280   2.12890  -0.53200    28    29    21    27
 C     1.81870   2.13560  -0.29450    29    15    28    19
 C    -2.38080   1.78170  -0.96330    30    20    48    26
 C     1.47770  -2.00410   1.09430    31    32    38     5
 C     2.80640  -1.73500   1.04290    32    18     2    31
 C    -0.69230  -2.26340   0.06580    33     7     5    35
 C    -2.74890  -1.42990   1.16380    34    39    36    35
 C    -1.36940  -1.72770   1.22930    35    34    37    33
 C    -3.57330  -1.64540   0.06100    36     6    43    34
 C    -0.49490  -0.88240   1.97750    37    38    35    42
 C     0.85590  -1.09790   1.95070    38    37    24    31
 C    -3.28760  -0.28400   1.72300    39    34    44    41
 C    -2.77490   1.70350   1.18740    40    45    41    20
 C    -2.31700   0.67390   1.96570    41    40    42    39
 C    -0.96540   0.45630   2.14490    42    41    37    22
 C    -4.51080  -0.63970  -0.04410    43    44    36    47
 C    -4.38740   0.18880   1.02740    44    45    43    39
 C    -3.96260   1.40110   0.59610    45    44    40    48
 C    -3.06980  -0.59720  -1.76450    46     6    47    25
 C    -4.08000   0.09490  -1.16470    47    46    48    43
 C    -3.69750   1.34000  -0.74060    48    45    47    30
