    48
C48-D6d-189                                                                     
 C    -0.36580  -0.01620  -2.42130     1     2    32     5
 C    -1.74460   0.00300  -2.29210     2     6     3     1
 C    -2.46620  -1.06620  -1.83450     3     2    17    10
 C     1.73840   1.13240  -1.97710     4     7    33     5
 C     0.35620   1.19920  -2.08440     5     4     1     8
 C    -2.47940   1.05540  -1.83030     6     2     9    13
 C     2.46130   1.82680  -1.04570     7     4    47    36
 C    -0.36540   2.09930  -1.19990     8     9     5    48
 C    -1.74820   1.99230  -1.13970     9    43     6     8
 C    -3.63900  -0.68820  -1.19580    10    11    13     3
 C    -3.61320  -1.38850  -0.01850    11    10    16    12
 C    -3.59770  -0.69160   1.16910    12    27    15    11
 C    -3.65010   0.69240  -1.19650    13    14     6    10
 C    -3.62250   1.39030  -0.01540    14    13    15    43
 C    -3.59460   0.68460   1.16720    15    25    12    14
 C    -2.46490  -2.14580  -0.00560    16    19    17    11
 C    -1.74400  -2.01760  -1.16520    17     3    16    18
 C    -0.36400  -2.12030  -1.22160    18    17    21    32
 C    -1.74480  -2.00180   1.15130    19    27    16    20
 C    -0.36180  -2.10410   1.21280    20    19    29    21
 C     0.36520  -2.43640  -0.00500    21    23    18    20
 C     2.45750  -1.82870   1.05400    22    30    23    37
 C     1.74340  -2.30390  -0.01560    23    24    22    21
 C     2.46530  -1.84580  -1.08280    24    31    23    34
 C    -2.45610   1.07420   1.83480    25    45    26    15
 C    -1.74180   0.00300   2.31660    26    27    25    28
 C    -2.46060  -1.06090   1.84330    27    26    19    12
 C    -0.36130  -0.00110   2.43520    28    26    29    40
 C     0.36700  -1.21820   2.10800    29    30    20    28
 C     1.74340  -1.14710   2.00240    30    42    22    29
 C     1.74300  -1.16160  -2.01750    31    24    33    32
 C     0.36390  -1.23350  -2.11800    32    31     1    18
 C     2.47480  -0.01450  -2.12830    33    31     4    35
 C     3.62890  -1.20240  -0.69220    34    37    35    24
 C     3.63540  -0.00680  -1.38290    35    36    33    34
 C     3.62990   1.17360  -0.68050    36    35    39     7
 C     3.62570  -1.18600   0.68060    37    34    38    22
 C     3.60960  -0.00450   1.38230    38    37    42    39
 C     3.61130   1.19130   0.69300    39    36    46    38
 C     0.35900   1.22590   2.10490    40    41    44    28
 C     1.74510   1.16610   2.00090    41    42    46    40
 C     2.46310   0.00810   2.14090    42    30    41    38
 C    -2.47470   2.15140   0.00950    43     9    45    14
 C    -0.36430   2.13270   1.22090    44    45    48    40
 C    -1.74590   2.03160   1.16480    45    25    43    44
 C     2.46880   1.86470   1.06620    46    47    41    39
 C     1.74580   2.33610   0.00560    47    46     7    48
 C     0.36760   2.45910   0.00580    48    47    44     8
