    48
C48-C1-60                                                                       
 C     0.01970  -2.45240  -1.46420     1     2    23    11
 C    -1.18980  -1.90010  -1.61720     2     1     4    13
 C    -0.04080   0.05520  -2.41370     3     6     4     9
 C    -1.30690  -0.62530  -2.18000     4     2     5     3
 C    -2.47410   0.05370  -1.75850     5    14     8     4
 C    -0.10740   1.43270  -2.13690     6    48     7     3
 C    -1.22980   2.04280  -1.55820     7     8     6    46
 C    -2.41360   1.40880  -1.41550     8     7    17     5
 C     1.27810  -0.56790  -2.18990     9    11     3    10
 C     2.42600   0.19970  -1.66330    10    47    12     9
 C     1.23720  -1.92340  -1.78900    11     1    36     9
 C     3.33210  -0.41630  -0.71680    12    35    40    10
 C    -1.97210  -2.31080  -0.51800    13    15    22     2
 C    -3.43740  -0.46630  -0.89540    14    16    15     5
 C    -3.03920  -1.56550  -0.15560    15    13    18    14
 C    -3.95110   0.51220  -0.09970    16    19    17    14
 C    -3.23050   1.63870  -0.32310    17    16     8    42
 C    -3.12650  -1.16390   1.15700    18    19    15    20
 C    -3.66500   0.07590   1.14450    19    32    16    18
 C    -1.91810  -1.19470   1.85030    20    18    21    25
 C    -0.85050  -2.05160   1.58390    21    20    22    28
 C    -1.02710  -2.83240   0.38420    22    23    13    21
 C     0.09180  -3.14420  -0.29540    23    24    22     1
 C     1.34490  -3.03340   0.09460    24    23    36    29
 C    -1.64750   0.16340   2.13500    25    32    26    20
 C    -0.34580   0.65530   2.20910    26    25    27    33
 C     0.75900  -0.28580   2.27740    27    31    26    28
 C     0.50830  -1.69170   1.92080    28    29    21    27
 C     1.61500  -2.34400   1.26220    29    38    24    28
 C     2.22810   1.46960   1.52220    30    34    31    39
 C     2.05780   0.20790   2.00730    31    30    37    27
 C    -2.71360   0.88380   1.63670    32    19    42    25
 C    -0.12380   1.97560   1.59900    33    34    43    26
 C     1.19740   2.31700   1.26490    34    30    44    33
 C     3.04560  -1.70630  -0.32580    35    36    38    12
 C     2.12090  -2.46520  -0.88380    36    35    24    11
 C     3.09310  -0.48360   1.42690    37    38    31    40
 C     2.80480  -1.70030   1.02420    38    37    35    29
 C     3.25690   1.56460   0.60350    39    41    40    30
 C     3.66900   0.29920   0.44610    40    39    37    12
 C     2.69330   2.32780  -0.34270    41    39    44    47
 C    -2.45580   1.94920   0.80740    42    32    43    17
 C    -1.18650   2.50010   0.74400    43    42    46    33
 C     1.58580   3.00700   0.11970    44    45    41    34
 C     0.61180   3.02080  -0.78100    45    44    46    48
 C    -0.70880   2.88360  -0.54580    46    45     7    43
 C     2.20610   1.58340  -1.44580    47    48    41    10
 C     0.97820   2.09910  -1.70180    48     6    45    47
