    48
C48-C1-88                                                                       
 C     3.01190  -1.72900   0.43980     1    26     4     6
 C     1.35110  -1.81360  -1.65670     2     3     5    24
 C     2.46140  -0.98120  -1.64760     3     2     4    43
 C     3.46040  -1.07680  -0.68160     4     8     1     3
 C     0.11420  -1.42470  -2.16110     5     2    29    48
 C     2.89130  -0.75260   1.39870     6     7    17     1
 C     3.38070   0.39600   0.89550     7     6     8    11
 C     3.80600   0.19030  -0.37670     8    15     4     7
 C     0.44490   2.45810   1.46450     9    22    10    14
 C     1.41780   1.53620   1.83540    10     9    11    16
 C     2.57880   1.49770   1.00690    11     7    10    12
 C     2.52990   2.02280  -0.31890    12    13    15    11
 C     1.37860   2.64700  -0.67680    13    14    12    45
 C     0.46780   3.09160   0.21980    14    40    13     9
 C     3.12440   1.07420  -1.12020    15     8    12    43
 C     0.91820   0.27600   2.39530    16    17    19    10
 C     1.71370  -0.86110   2.07280    17     6    18    16
 C     1.14120  -2.05530   1.62870    18    21    17    26
 C    -0.51350   0.06250   2.52040    19    20    23    16
 C    -1.02240  -1.22720   2.23620    20    32    21    19
 C    -0.21010  -2.23240   1.70140    21    18    20    27
 C    -0.89380   2.25050   1.66210    22    23    41     9
 C    -1.41690   1.10160   2.15710    23    22    36    19
 C     1.10660  -2.71530  -0.59820    24    25    26     2
 C    -0.25940  -2.91890  -0.52790    25    24    27    29
 C     1.89500  -2.50850   0.52900    26     1    24    18
 C    -0.94370  -2.87540   0.69320    27    28    25    21
 C    -2.20980  -2.38380   0.75450    28    31    32    27
 C    -0.88830  -2.22320  -1.57630    29    30    25     5
 C    -2.19110  -1.77350  -1.47260    30    46    29    31
 C    -2.92960  -1.94620  -0.30890    31    28    33    30
 C    -2.27540  -1.38790   1.67660    32    28    37    20
 C    -3.54770  -0.75620   0.00470    33    34    31    37
 C    -3.28330   0.11170  -1.00950    34    46    33    38
 C    -2.71420   1.89640   0.46420    35    41    38    36
 C    -2.66250   0.91040   1.49440    36    37    23    35
 C    -3.10850  -0.37310   1.27200    37    32    36    33
 C    -2.86790   1.40340  -0.84570    38    34    35    42
 C    -0.74930   2.45810  -1.45430    39    42    40    45
 C    -0.78880   3.14960  -0.26200    40    41    14    39
 C    -1.67370   2.75100   0.66640    41    40    22    35
 C    -1.77990   1.59190  -1.74890    42    39    47    38
 C     2.23970   0.38210  -1.95520    43    15    44     3
 C     0.95150   0.85140  -2.30490    44    43    45    48
 C     0.58600   2.10550  -1.72380    45    39    13    44
 C    -2.43850  -0.49840  -1.88380    46    34    30    47
 C    -1.47020   0.35900  -2.33740    47    46    42    48
 C    -0.13380  -0.05870  -2.53700    48    47    44     5
