    48
C48-C1-113                                                                      
 C     2.65020   1.31670   1.20580     1     2    35     4
 C     2.92640   0.03660   1.67860     2    10     1     3
 C     3.42700  -0.91280   0.78370     3    34     8     2
 C     1.43650   1.94470   1.61140     4    37     5     1
 C     0.40920   1.32140   2.37560     5     9     6     4
 C    -0.93010   1.62210   2.06690     6     5    40    20
 C     1.69220  -1.77810   1.85400     7     8    10    14
 C     2.56270  -1.99240   0.87040     8     7    13     3
 C     0.68850  -0.01130   2.68900     9    10     5    22
 C     1.89670  -0.55040   2.37050    10     7     9     2
 C     2.11420  -0.86130  -2.13060    11    12    25    19
 C     2.78530  -1.52980  -1.19120    12    11    13    34
 C     2.06050  -2.34530  -0.35500    13     8    12    17
 C     0.36390  -2.03530   1.79450    14     7    16    22
 C    -1.58330  -2.37420   0.48400    15    31    16    23
 C    -0.21180  -2.57330   0.62480    16    15    14    17
 C     0.66330  -2.58180  -0.55300    17    13    18    16
 C     0.03430  -1.99220  -1.73490    18    32    19    17
 C     0.79480  -1.01910  -2.40710    19    11    18    29
 C    -1.99180   0.68610   2.11880    20    48     6    21
 C    -1.65320  -0.69550   2.19830    21    22    23    20
 C    -0.31740  -0.98380   2.45620    22    21    14     9
 C    -2.39360  -1.54920   1.33530    23    47    21    15
 C     1.29570   1.15890  -2.36640    24    26    25    29
 C     2.44090   0.44750  -2.07620    25    11    24    33
 C     0.98630   2.24950  -1.60520    26    24    36    45
 C    -1.94570  -0.58000  -2.15890    27    41    28    32
 C    -1.11260   0.53950  -2.39810    28    29    27    44
 C     0.24550   0.26420  -2.64220    29    24    28    19
 C    -3.27230  -1.54400  -0.64070    30    31    47    41
 C    -2.16100  -2.26270  -0.75500    31    30    32    15
 C    -1.33600  -1.80640  -1.74440    32    31    18    27
 C     3.34350   0.63780  -1.03110    33    34    25    35
 C     3.61120  -0.62330  -0.53260    34     3    33    12
 C     2.88850   1.63120  -0.16120    35    36    33     1
 C     1.81490   2.41440  -0.50540    36    37    35    26
 C     1.01850   2.68290   0.52750    37    36    38     4
 C    -0.26790   2.84610   0.14180    38    37    40    45
 C    -2.43890   2.03330   0.47900    39    40    48    43
 C    -1.26650   2.45620   0.97990    40    39    38     6
 C    -3.13790  -0.49010  -1.47590    41    42    30    27
 C    -3.45580   0.61980  -0.78120    42    41    43    46
 C    -2.60620   1.70500  -0.85870    43    42    39    44
 C    -1.45790   1.77270  -1.69820    44    45    43    28
 C    -0.33510   2.51260  -1.23550    45    26    38    44
 C    -3.75160   0.22720   0.52550    46    48    47    42
 C    -3.51490  -1.10900   0.60990    47    30    46    23
 C    -3.00990   1.07670   1.26110    48    46    39    20
