    48
C48-C1-176                                                                      
 C    -0.09120   1.78890  -2.11530     1     2    31     8
 C     1.25580   1.73850  -1.89240     2     1    25     3
 C     1.81350   2.41820  -0.79820     3     4     5     2
 C     2.88520   1.65190  -0.40630     4    27     3     9
 C     0.92730   2.92930   0.13570     5    11     3     6
 C    -0.45280   2.96490  -0.06680     6     8     5    16
 C    -2.15120   1.88250  -1.31000     7     8    33    14
 C    -0.95780   2.51000  -1.26890     8     7     6     1
 C     3.02520   1.16640   0.89330     9    10    12     4
 C     3.35950  -0.15010   0.72530    10     9    18    24
 C     1.10920   2.42850   1.40820    11    13    12     5
 C     2.03390   1.48420   1.78240    12     9    11    22
 C    -0.10080   2.15540   1.91020    13    11    45    16
 C    -2.93930   1.54510  -0.21440    14     7    46    15
 C    -2.33210   1.73870   1.06340    15    16    14    17
 C    -1.14260   2.50470   1.08520    16    13    15     6
 C    -2.34500   0.58100   1.91770    17    48    44    15
 C     3.51490  -0.46090  -0.61220    18    19    27    10
 C     2.94320  -1.64290  -0.81620    19    18    20    28
 C     2.55160  -2.13710   0.39750    20    21    19    24
 C     1.40100  -2.77330   0.21840    21    20    42    29
 C     1.28350   0.48420   2.45390    22    45    12    23
 C     1.53520  -0.90490   2.21420    23    24    22    41
 C     2.65990  -1.17440   1.37630    24    20    10    23
 C     1.97780   0.56330  -2.12240    25    27     2    26
 C     1.27840  -0.67170  -2.37180    26    28    25    30
 C     3.07690   0.62100  -1.28300    27    18     4    25
 C     1.85780  -1.78110  -1.69530    28    29    19    26
 C     0.98400  -2.61130  -1.06400    29    34    21    28
 C    -0.16850  -0.62970  -2.54310    30    31    26    35
 C    -0.79400   0.65650  -2.55680    31    33     1    30
 C    -2.87970  -0.12280  -1.71210    32    33    36    46
 C    -2.08760   0.83320  -2.15980    33    32     7    31
 C    -0.35740  -2.58600  -1.11680    34    29    35    37
 C    -1.04050  -1.68440  -1.96680    35    34    36    30
 C    -2.37060  -1.38020  -1.55660    36    32    39    35
 C    -0.80370  -2.82850   0.20990    37    38    42    34
 C    -2.01260  -2.34970   0.57810    38    37    43    39
 C    -2.86720  -1.75240  -0.31150    39    38    47    36
 C    -0.93730  -1.17630   2.35630    40    43    44    41
 C     0.34220  -1.74360   2.10330    41    40    42    23
 C     0.32810  -2.70600   1.03960    42    21    37    41
 C    -2.08130  -1.56860   1.69830    43    48    38    40
 C    -1.13620   0.19020   2.56900    44    45    40    17
 C    -0.03000   0.97400   2.59150    45    44    13    22
 C    -3.52180   0.31680  -0.56610    46    47    32    14
 C    -3.55860  -0.71770   0.29400    47    46    48    39
 C    -2.98550  -0.57180   1.50880    48    47    43    17
