    48
C48-C1-57                                                                       
 C    -2.63420  -0.50830  -1.38220     1     7     2    35
 C    -1.45030  -1.06720  -1.87360     2     1     3     4
 C    -1.08800  -2.33160  -1.36170     3    11    23     2
 C    -0.39830  -0.16390  -2.26950     4     5     2     9
 C     0.89980  -0.68220  -2.23800     5     6    10     4
 C     1.98110   0.09800  -2.06380     6     5    43    14
 C    -2.83520   0.83950  -1.36780     7     1    37     8
 C    -1.78380   1.71140  -1.57180     8     7    48     9
 C    -0.53120   1.26410  -2.00010     9     8    13     4
 C     1.24910  -1.91730  -1.69290    10    11     5    19
 C     0.25540  -2.70880  -1.22580    11    10    12     3
 C     0.38890  -3.34310  -0.01300    12    16    11    21
 C     0.64840   1.99810  -1.56990    13    14     9    44
 C     1.91790   1.41700  -1.72290    14     6    15    13
 C     3.03300   1.62180  -0.92840    15    46    14    42
 C    -0.83960  -3.34410   0.49860    16    18    12    23
 C     0.44460  -2.06710   1.76740    17    18    29    21
 C    -0.82820  -2.49550   1.51390    18    16    27    17
 C     2.48050  -1.72410  -1.02740    19    43    10    20
 C     2.43200  -1.97970   0.38210    20    21    22    19
 C     1.30910  -2.68520   0.81440    21    20    12    17
 C     2.89860  -0.87040   1.13560    22    40    20    28
 C    -1.82120  -2.87570  -0.29670    23    16    24     3
 C    -2.69890  -2.03560   0.35830    24    35    23    27
 C    -2.76570   0.52270   1.37930    25    26    31    34
 C    -2.42100   1.82810   1.10830    26    33    36    25
 C    -1.91500  -1.67590   1.50450    27    18    31    24
 C     1.94980  -0.26680   2.01200    28    38    29    22
 C     0.66940  -0.77150   2.23150    29    28    17    30
 C    -0.47260   0.13460   2.26440    30    31    32    29
 C    -1.80030  -0.34210   1.91910    31    27    25    30
 C    -0.16900   1.51000   1.90270    32    33    39    30
 C    -1.13570   2.23970   1.23580    33    26    32    47
 C    -3.71150   0.16230   0.38550    34    37    35    25
 C    -3.34570  -0.99780  -0.24930    35    24    34     1
 C    -3.08510   2.34110   0.03870    36    37    26    48
 C    -3.71720   1.27360  -0.41910    37    36     7    34
 C     2.18900   1.06410   1.89640    38    41    28    39
 C     1.13650   1.89150   1.65280    39    38    32    45
 C     3.67170   0.18770   0.59950    40    41    42    22
 C     3.22050   1.34720   1.12850    41    38    46    40
 C     3.67620   0.38240  -0.74780    42    43    40    15
 C     3.02310  -0.53500  -1.46810    43    42     6    19
 C     0.46450   2.85380  -0.39300    44    47    45    13
 C     1.52630   2.69830   0.53230    45    46    44    39
 C     2.81120   2.27350   0.24040    46    41    15    45
 C    -0.84360   2.97170   0.05510    47    48    44    33
 C    -1.98620   2.75830  -0.67050    48    47    36     8
