    48
C48-C1-127                                                                      
 C    -3.16210   0.73760   0.94900     1     2    30     6
 C    -2.31140   0.92950   1.98120     2     3     1     7
 C    -1.57040   2.02570   1.71370     3     2    33    13
 C    -2.64490  -1.57200   0.99810     4    15     6     5
 C    -1.69380  -1.33430   2.03510     5     7    20     4
 C    -3.27550  -0.48930   0.35560     6     1     4    24
 C    -1.50740  -0.04340   2.47710     7     2     5     8
 C    -0.21040   0.46880   2.60560     8     7     9    13
 C     0.96070  -0.30730   2.46680     9     8    10    19
 C     2.14440   0.36300   2.04620    10    45     9    14
 C     0.45370   2.92190   0.13800    11    39    32    12
 C     0.81910   2.32720   1.39240    12    13    14    11
 C    -0.26260   1.80200   2.10160    13     3    12     8
 C     2.05550   1.67150   1.45990    14    12    47    10
 C    -2.09180  -2.53600   0.21470    15    22    16     4
 C    -0.87910  -2.87600   0.72660    16    15    18    20
 C     1.30260  -2.69130  -0.09340    17    18    44    21
 C     0.01460  -3.04400  -0.29340    18    17    16    29
 C     0.76890  -1.69760   2.05380    19    20    21     9
 C    -0.56340  -2.13270   1.84230    20    16     5    19
 C     1.76170  -2.18100   1.14610    21    46    17    19
 C    -1.95540  -2.38890  -1.12940    22    15    23    29
 C    -2.33010  -1.23520  -1.74780    23    22    24    27
 C    -3.06540  -0.27710  -1.03780    24    25    23     6
 C    -2.80020   1.08810  -1.19360    25    30    26    24
 C    -1.72340   1.46300  -1.98820    26    31    25    28
 C    -1.18330  -0.83500  -2.47840    27    28    40    23
 C    -0.89080   0.50510  -2.59730    28    27    36    26
 C    -0.65640  -2.67030  -1.42520    29    22    18    40
 C    -2.90440   1.72100   0.03620    30     1    25    33
 C    -0.87390   2.43920  -1.53620    31    34    26    32
 C    -0.89840   2.99570  -0.27630    32    33    31    11
 C    -1.93820   2.60890   0.52100    33    32     3    30
 C     0.38420   2.14220  -1.88400    34    31    39    36
 C     2.62070   0.65120  -1.53790    35    42    38    37
 C     0.44440   0.92670  -2.53000    36    34    28    37
 C     1.54950   0.07890  -2.30500    37    36    35    41
 C     2.44560   1.86910  -0.80380    38    39    47    35
 C     1.27420   2.53500  -0.94530    39    34    38    11
 C    -0.11360  -1.72920  -2.26690    40    29    27    41
 C     1.24120  -1.32600  -2.13020    41    40    44    37
 C     3.44450  -0.09290  -0.71600    42    43    48    35
 C     3.00760  -1.34190  -0.45590    43    42    44    46
 C     1.99220  -1.96860  -1.09450    44    43    17    41
 C     3.21060  -0.26280   1.41670    45    46    48    10
 C     2.88600  -1.46770   0.89850    46    45    21    43
 C     3.01870   1.68070   0.44020    47    48    38    14
 C     3.70470   0.55050   0.45360    48    47    45    42
