    48
C48-C2-97                                                                       
 C     2.77900  -1.54010  -0.69530     1     2     3    35
 C     1.94510  -2.54420  -0.34690     2     1    27     6
 C     3.36010  -0.70630   0.25150     3    48     1     8
 C     0.12300  -3.16350   0.64300     4     5     6    26
 C    -0.96000  -2.69860   1.24840     5     4    18     9
 C     1.35920  -2.64750   0.90500     6     4     2     7
 C     1.52180  -1.54060   1.77420     7     8     6    17
 C     2.58850  -0.66840   1.46990     8    19     7     3
 C    -1.95440  -2.53790   0.33270     9    10     5    25
 C    -2.77400  -1.53480   0.71260    10     9    21    11
 C    -2.14150  -0.94780   1.84520    11    12    18    10
 C    -2.20920   0.41310   1.95570    12    13    11    14
 C    -3.01570   1.14450   1.13850    13    39    12    20
 C    -1.01330   1.11070   2.15680    14    12    16    38
 C     1.34760   1.23740   2.07180    15    19    16    45
 C     0.22340   0.47800   2.40290    16    15    14    17
 C     0.29410  -0.96780   2.34270    17    18    16     7
 C    -0.94360  -1.62840   2.08770    18     5    11    17
 C     2.56400   0.66390   1.78030    19    46     8    15
 C    -3.66680   0.57920   0.06540    20    22    13    21
 C    -3.34750  -0.72470  -0.25430    21    20    10    23
 C    -3.26200   1.38280  -0.94540    22    28    20    40
 C    -2.60880  -0.70040  -1.48570    23    28    24    21
 C    -1.53860  -1.57240  -1.78030    24    23    25    29
 C    -1.37820  -2.69650  -0.92420    25    26     9    24
 C    -0.13710  -3.21470  -0.69720    26    27    25     4
 C     0.95620  -2.73960  -1.27280    27    26    30     2
 C    -2.55210   0.63980  -1.79110    28    22    31    23
 C    -0.31080  -0.96630  -2.32830    29    30    32    24
 C     0.93360  -1.62990  -2.06350    30    27    35    29
 C    -1.35640   1.24080  -2.08110    31    28    32    43
 C    -0.22910   0.48220  -2.39890    32    31    33    29
 C     1.00780   1.10990  -2.14640    33    34    32    36
 C     2.20090   0.41490  -1.93430    34    47    35    33
 C     2.12430  -0.94460  -1.81680    35    34    30     1
 C     1.09870   2.28740  -1.35700    36    37    42    33
 C     2.31820   2.23410  -0.74710    37    44    36    47
 C    -1.09780   2.29180   1.36920    38    39    41    14
 C    -2.32730   2.25260   0.76460    39    40    13    38
 C    -2.47710   2.42240  -0.57160    40    22    39    43
 C     0.05400   2.75930   0.72300    41    38    45    42
 C    -0.06130   2.77180  -0.74120    42    43    36    41
 C    -1.30100   2.43230  -1.28770    43    40    42    31
 C     2.49930   2.41070   0.58630    44    46    37    45
 C     1.30040   2.41570   1.26950    45    44    41    15
 C     3.32220   1.40700   0.95940    46    19    44    48
 C     3.03440   1.13250  -1.12690    47    34    37    48
 C     3.70650   0.60180  -0.05870    48    46    47     3
