    48
C48-C2-46                                                                       
 C    -3.40410  -0.02420  -0.64040     1     2    14    32
 C    -3.01240  -1.23840  -0.96730     2     1     5    27
 C    -1.31210  -2.49020  -1.19940     3     4     5    26
 C     0.01370  -2.67170  -1.09870     4     3     8    21
 C    -1.87710  -1.37670  -1.72310     5     3     2     6
 C    -1.08340  -0.27750  -2.13250     6     5    13     7
 C     0.36460  -0.47650  -2.14470     7    11     6     8
 C     0.89770  -1.74340  -1.63050     8     4     9     7
 C     2.16580  -1.76180  -1.05000     9    19     8    15
 C     0.66240   1.89830  -1.71060    10    12    11    45
 C     1.25200   0.65290  -2.00020    11    10    18     7
 C    -0.72370   2.10120  -1.65650    12    10    48    13
 C    -1.63750   1.03590  -1.86160    13    12    14     6
 C    -2.87210   1.14030  -1.11800    14     1    46    13
 C     2.43530  -2.35590   0.21380    15    20    16     9
 C     3.27800  -1.43880   0.78430    16    15    17    23
 C     3.93900  -0.65340  -0.12940    17    24    19    16
 C     2.58250   0.50280  -1.55140    18    19    11    42
 C     3.02570  -0.72450  -1.14030    19     9    17    18
 C     1.28520  -2.78070   0.82300    20    21    15    34
 C     0.22510  -3.27280   0.14360    21    20    25     4
 C     3.01770   0.69860   1.12870    22    35    24    23
 C     2.57290  -0.51850   1.57320    23    22    16    33
 C     3.93870   0.65690   0.11690    24    17    42    22
 C    -0.96540  -3.13060   0.77390    25    26    21    28
 C    -1.98750  -2.94200  -0.08280    26    27    25     3
 C    -2.97150  -2.06700   0.12970    27    26     2    30
 C    -0.74140  -2.09690   1.68480    28    25    34    29
 C    -1.68120  -1.05020   1.88510    29    28    30    38
 C    -2.94900  -1.14590   1.18060    30    32    27    29
 C    -3.09840   1.25150   1.01990    31    32    39    46
 C    -3.50590   0.02740   0.72190    32    31     1    30
 C     1.23890  -0.66500   2.01770    33    34    23    37
 C     0.64490  -1.90110   1.73860    34    33    28    20
 C     2.15330   1.73330   1.02490    35    22    36    43
 C     0.87560   1.71360   1.58860    36    40    35    37
 C     0.34160   0.46190   2.13040    37    33    36    38
 C    -1.11130   0.27140   2.11850    38    39    29    37
 C    -1.90720   1.37090   1.69250    39    41    31    38
 C    -0.00030   2.63810   1.04390    40    41    36    44
 C    -1.32900   2.46760   1.14350    41    40    39    47
 C     3.29280   1.45630  -0.78080    42    24    43    18
 C     2.43350   2.36710  -0.22690    43    45    42    35
 C     0.22090   3.29810  -0.17430    44    45    48    40
 C     1.29770   2.82040  -0.83130    45    44    43    10
 C    -2.99260   2.08500  -0.09660    46    47    14    31
 C    -2.00750   2.97600   0.06070    47    46    48    41
 C    -0.98610   3.17980  -0.78780    48    47    44    12
