    48
C48-Cs-187                                                                      
 C    -1.91190   1.90140   1.53080     1    25     7     5
 C     2.00450   2.10560   1.12270     2     6    29     3
 C     0.76910   2.26160   1.65870     3     2    26     4
 C     0.21380   1.24280   2.50440     4     5     3    11
 C    -1.18480   1.17100   2.46630     5     9     1     4
 C     2.77290   1.05830   1.36340     6     2    10    47
 C    -2.92330   1.14080   1.03280     7     8     1    14
 C    -2.95720  -0.01170   1.70550     8    15     7     9
 C    -1.86160  -0.01460   2.54650     9     5    18     8
 C     2.30930  -0.01760   2.07860    10     6    45    11
 C     0.97660  -0.01520   2.62480    11    10     4    17
 C    -2.90350   0.00240  -1.12250    12    21    14    13
 C    -2.88110  -1.20800  -0.33180    13    15    33    12
 C    -2.86820   1.22090  -0.34980    14     7    24    12
 C    -2.93200  -1.16920   1.05010    15     8    16    13
 C    -1.93610  -1.93240   1.56540    16    44    15    18
 C     0.21410  -1.27860   2.52180    17    18    19    11
 C    -1.18850  -1.20780   2.49650    18     9    16    17
 C     0.79400  -2.29940   1.68890    19    46    43    17
 C    -1.30340  -1.07450  -2.56590    20    34    38    21
 C    -2.11100   0.01510  -2.27650    21    22    20    12
 C    -1.30830   1.10160  -2.58940    22    23    39    21
 C    -1.14920   2.17700  -1.78580    23    22    24    27
 C    -1.93730   2.25350  -0.64970    24    23    25    14
 C    -1.33400   2.63860   0.55410    25     1    26    24
 C     0.01300   2.87270   0.61870    26    25    28     3
 C     0.23980   2.42450  -1.71750    27    28    23    30
 C     0.80720   2.84730  -0.53880    28    29    27    26
 C     2.02580   2.38160  -0.20140    29    28     2    32
 C     0.92160   1.39560  -2.44020    30    39    27    31
 C     2.11140   0.75270  -1.94500    31    32    30    42
 C     2.75350   1.39180  -0.84520    32    47    29    31
 C    -1.93350  -2.23170  -0.62780    33    34    44    13
 C    -1.13510  -2.14200  -1.75660    34    20    33    36
 C     0.78000  -2.80900  -0.50640    35    40    36    43
 C     0.24530  -2.38410  -1.69880    36    35    34    37
 C     0.92530  -1.37550  -2.43350    37    38    36    42
 C    -0.08310  -0.65050  -2.99360    38    39    20    37
 C    -0.08600   0.66910  -3.00070    39    38    22    30
 C     1.99730  -2.34320  -0.15560    40    35    46    41
 C     2.72720  -1.36360  -0.82430    41    48    40    42
 C     2.10550  -0.73160  -1.93800    42    41    37    31
 C     0.00120  -2.88380   0.65570    43    44    35    19
 C    -1.34590  -2.64860   0.57980    44    16    43    33
 C     2.82220  -1.09690   1.39430    45    46    10    48
 C     2.04590  -2.13790   1.18220    46    45    40    19
 C     3.34510   0.66370   0.17000    47    48     6    32
 C     3.35200  -0.66010   0.18630    48    47    41    45
