    48
C48-C1-149                                                                      
 C    -2.09400  -1.40770   1.84050     1    24     2     4
 C    -2.40260  -2.04600   0.66560     2     3     1     8
 C    -1.38810  -2.74170   0.06170     3    11     2     7
 C    -0.82380  -1.37030   2.38290     4     1     6    34
 C     1.53010  -1.66140   1.95100     5    48     6    35
 C     0.21780  -2.15180   1.85000     6     5     4     7
 C    -0.09750  -2.84880   0.63350     7     3    43     6
 C    -3.13740  -1.10390  -0.05230     8    26     9     2
 C    -2.77470  -0.76870  -1.34890     9     8    10    14
 C    -1.78090  -1.51690  -1.97230    10    11     9    15
 C    -1.16390  -2.52130  -1.27150    11    17     3    10
 C    -1.71280   1.25790  -2.11470    12    14    22    13
 C    -0.75180   0.46970  -2.78550    13    16    15    12
 C    -2.71700   0.64190  -1.36730    14    12     9    21
 C    -0.73910  -0.90300  -2.68390    15    13    10    18
 C     0.44350   1.12350  -2.65560    16    23    13    47
 C     0.14390  -2.56130  -1.54220    17    11    43    18
 C     0.49390  -1.55740  -2.41670    18    17    46    15
 C    -2.23350   2.11940   0.47150    19    21    20    27
 C    -1.28030   2.79320  -0.31030    20    29    22    19
 C    -3.04130   1.11050  -0.07500    21    26    19    14
 C    -1.03080   2.37750  -1.60930    22    23    20    12
 C     0.29050   2.27310  -1.98240    23    16    30    22
 C    -2.68120  -0.18330   1.87370    24    26     1    25
 C    -1.77370   0.68820   2.39030    25    24    27    34
 C    -3.32580   0.01470   0.69750    26    24     8    21
 C    -1.62070   1.90090   1.73840    27    28    25    19
 C    -0.37690   2.43240   1.65440    28    29    27    32
 C    -0.16480   3.02510   0.46910    29    28    31    20
 C     1.39590   2.48520  -1.19240    30    23    31    40
 C     1.15560   2.87120   0.11890    31    29    30    39
 C     0.78340   1.83500   2.09610    32    28    39    33
 C     0.69000   0.53630   2.67710    33    35    34    32
 C    -0.60560  -0.01700   2.76870    34    33    25     4
 C     1.76240  -0.31130   2.36810    35    36    33     5
 C     2.85390   0.11240   1.61940    36    37    38    35
 C     3.27680  -0.87130   0.83980    37    36    48    41
 C     2.79010   1.28060   0.88520    38    39    36    42
 C     1.79100   2.18410   1.15950    39    38    31    32
 C     2.28310   1.42500  -1.46050    40    42    30    47
 C     3.32250  -0.45850  -0.42740    41    37    42    45
 C     3.07640   0.89400  -0.45540    42    41    40    38
 C     0.85760  -2.86350  -0.41790    43    44    17     7
 C     2.10780  -2.34510  -0.25950    44    43    48    45
 C     2.57390  -1.35700  -1.19550    45    41    46    44
 C     1.72470  -0.87850  -2.22840    46    47    18    45
 C     1.65510   0.52870  -2.36720    47    16    46    40
 C     2.49710  -1.93310   0.98290    48    37    44     5
