    48
C48-C1-143                                                                      
 C    -3.39180   0.69350  -0.59620     1     2    26     3
 C    -2.60790   1.47430  -1.36430     2     1     4     7
 C    -3.32500  -0.67970  -0.66570     3     1    32    11
 C    -2.02190   2.40550  -0.57650     4     5     2    25
 C    -0.79920   2.72270  -1.05920     5    15     4     8
 C    -1.51120  -0.36590  -2.28780     6     7    20    11
 C    -1.64060   1.00930  -2.20890     7     2     6     8
 C    -0.49290   1.79330  -2.08420     8     7     5     9
 C     0.82620   1.28480  -2.20150     9     8    10    21
 C     1.82550   1.92340  -1.41630    10    14    18     9
 C    -2.34380  -1.22040  -1.52600    11    13     3     6
 C    -1.57160  -2.75640   0.18560    12    31    46    13
 C    -1.52380  -2.29180  -1.14580    13    45    11    12
 C     1.47610   2.89880  -0.48140    14    16    15    10
 C     0.16040   3.10520  -0.18830    15     5    14    23
 C     2.17470   2.67890   0.62820    16    19    14    28
 C     3.05230  -0.10660  -1.09990    17    18    41    22
 C     2.89810   1.22320  -0.83300    18    17    19    10
 C     3.03680   1.67920   0.48130    19    16    36    18
 C    -0.23640  -0.92130  -2.39340    20     6    45    21
 C     0.96830  -0.13300  -2.41310    21    22    20     9
 C     2.11730  -0.78400  -1.90320    22    42    17    21
 C     0.00200   2.72160   1.17740    23    28    24    15
 C    -1.14080   2.03110   1.60350    24    23    25    29
 C    -2.28770   2.09910   0.75680    25    26     4    24
 C    -3.22240   1.09820   0.70720    26    27    25     1
 C    -3.08610  -0.00760   1.43970    27    26    30    32
 C     1.26440   2.38830   1.56490    28    16    23    33
 C    -0.90700   0.76160   2.30990    29    30    24    34
 C    -1.93740  -0.20340   2.18770    30    35    27    29
 C    -2.39330  -2.04850   1.01790    31    32    35    12
 C    -3.28700  -1.12120   0.63990    32    31     3    27
 C     1.53350   1.14070   2.07070    33    28    36    34
 C     0.47690   0.26150   2.42120    34    33    39    29
 C    -1.59660  -1.50990   1.97480    35    40    31    30
 C     2.73870   0.72750   1.45050    36    37    19    33
 C     2.93630  -0.58630   1.18010    37    36    41    38
 C     1.98350  -1.53590   1.59760    38    47    37    39
 C     0.75470  -1.15730   2.20220    39    40    38    34
 C    -0.34270  -1.98970   1.89780    40    35    39    46
 C     3.39780  -0.99470  -0.07200    41    43    37    17
 C     2.05920  -2.07170  -1.39940    42    43    44    22
 C     2.84650  -2.17250  -0.30780    43    41    47    42
 C     0.86240  -2.68670  -1.18450    44    42    45    48
 C    -0.28070  -2.17850  -1.75170    45    44    13    20
 C    -0.33170  -2.92930   0.82780    46    48    12    40
 C     2.03070  -2.59030   0.66960    47    43    48    38
 C     0.85610  -3.07700   0.17160    48    46    47    44
