    48
C48-C1-106                                                                      
 C     2.32610  -0.31200  -1.77810     1     4     2    31
 C     3.34150  -0.14560  -0.75850     2    23     3     1
 C     3.41360  -1.11180   0.25260     3     6    11     2
 C     1.68190  -1.59170  -1.77520     4     5     8     1
 C     1.96160  -2.54880  -0.80250     5     6    17     4
 C     2.72210  -2.24890   0.25530     6     3     5    19
 C    -0.45090  -0.67800  -2.46030     7     8    30     9
 C     0.32430  -1.74670  -2.07940     8     7     4    46
 C    -1.81040  -0.61150  -2.12820     9     7    10    37
 C    -2.39890  -1.60890  -1.33470    10    48    45     9
 C     3.00310  -0.44720   1.38820    11    12    13     3
 C     3.01790   0.84550   1.17260    12    11    14    23
 C     1.92320  -1.06330   1.96860    13    19    11    16
 C     2.01070   1.66450   1.59990    14    12    25    15
 C     0.81290   1.12780   2.18600    15    14    29    16
 C     0.75920  -0.33610   2.36470    16    13    21    15
 C     0.75300  -3.02270  -0.38940    17    46     5    18
 C     0.62610  -2.76500   0.97530    18    19    17    20
 C     1.83270  -2.25870   1.30780    19    18    13     6
 C    -0.57840  -2.26640   1.47080    20    18    42    21
 C    -0.52480  -1.00830   2.24800    21    22    16    20
 C    -1.70470  -0.22980   2.23900    22    44    21    28
 C     3.35620   1.08610  -0.13550    23    24    12     2
 C     2.63840   2.14590  -0.47850    24    23    25    32
 C     1.94110   2.61630   0.60740    25    26    24    14
 C     0.77300   3.06440   0.20870    26    25    27    33
 C    -0.39720   2.79630   0.83700    27    26    38    29
 C    -1.65130   1.16650   2.02170    28    29    41    22
 C    -0.42890   1.81930   1.89300    29    28    27    15
 C     0.11380   0.59470  -2.47350    30     7    35    31
 C     1.49880   0.83170  -2.15100    31    32    30     1
 C     1.73320   2.08510  -1.51960    32    24    33    31
 C     0.63730   2.82440  -1.11930    33    34    26    32
 C    -0.65380   2.55870  -1.36970    34    33    35    38
 C    -0.95800   1.45990  -2.14040    35    34    37    30
 C    -3.02980   1.10060  -0.90160    36    47    37    39
 C    -2.12440   0.74040  -1.91610    37    35     9    36
 C    -1.38110   2.70240  -0.17390    38    39    34    27
 C    -2.54100   2.02410   0.04120    39    38    41    36
 C    -3.53960   0.36450   1.11760    40    41    44    47
 C    -2.79490   1.45570   1.26520    41    40    39    28
 C    -1.71540  -2.41440   0.61700    42    43    45    20
 C    -2.82540  -1.65990   0.79670    43    44    42    48
 C    -2.90570  -0.66900   1.69200    44    43    40    22
 C    -1.52240  -2.53790  -0.78390    45    46    10    42
 C    -0.24930  -2.70290  -1.23150    46    17    45     8
 C    -3.70590   0.10040  -0.21580    47    48    40    36
 C    -3.31030  -1.18790  -0.40600    48    47    10    43
