    48
C48-C1-71                                                                       
 C     2.45530   0.72570  -1.87710     1     2    32     5
 C     2.90680  -0.53920  -1.56970     2     4     1     3
 C     3.53080  -0.79040  -0.33810     3     9    22     2
 C     2.02540  -1.57750  -1.73590     4    11     8     2
 C     1.12160   0.89890  -2.34950     5     7    37     1
 C    -1.12110   0.00120  -2.42520     6     7    38    48
 C     0.24750  -0.19530  -2.56360     7     6     8     5
 C     0.73940  -1.44940  -2.18300     8     4     7    44
 C     2.98930  -1.96070   0.15110     9    11    10     3
 C     2.51220  -1.65370   1.37730    10     9    12    20
 C     2.07340  -2.45050  -0.70690    11     9     4    18
 C     2.85620  -0.37090   1.66230    12    10    13    22
 C     1.78770   0.19580   2.32810    13    14    12    15
 C     1.47160   1.50150   2.04590    14    13    23    30
 C     0.75990  -0.74460   2.44160    15    13    16    20
 C    -0.59420  -0.37900   2.48500    16    15    17    29
 C    -1.50460  -1.31740   1.95440    17    31    21    16
 C     0.77350  -2.78290  -0.39840    18    11    44    19
 C     0.29970  -2.57740   0.92390    19    21    20    18
 C     1.21210  -1.90410   1.76900    20    10    19    15
 C    -1.05480  -2.31340   1.06330    21    19    17    46
 C     3.56580   0.23010   0.61930    22    24    12     3
 C     2.20520   2.12150   1.06130    23    26    14    24
 C     3.18310   1.51290   0.27810    24    22    23    32
 C     0.02160   2.65940   0.78800    25    26    35    30
 C     1.29050   2.77270   0.30310    26    33    23    25
 C    -3.19400   0.30930   1.52860    27    31    41    28
 C    -2.20910   1.27140   1.68390    28    27    29    34
 C    -0.95260   1.01310   2.27080    29    30    28    16
 C     0.11800   1.85170   1.94540    30    29    14    25
 C    -2.74500  -0.95780   1.55060    31    27    17    42
 C     2.68860   1.76410  -1.00110    32    33     1    24
 C     1.58310   2.54310  -0.98190    33    26    32    37
 C    -2.28660   2.04720   0.48720    34    39    35    28
 C    -1.09340   2.55370  -0.06210    35    25    34    36
 C    -0.77140   2.18390  -1.44460    36    38    37    35
 C     0.58780   2.08970  -1.78740    37    33    36     5
 C    -1.65250   1.22920  -1.96210    38    40    36     6
 C    -3.30560   1.46090  -0.23940    39    41    40    34
 C    -2.86090   0.94960  -1.41830    40    38    39    47
 C    -3.94050   0.45050   0.39720    41    39    27    43
 C    -3.13200  -1.58940   0.40750    42    31    43    46
 C    -3.85980  -0.70830  -0.35120    43    47    42    41
 C    -0.08220  -2.31860  -1.43060    44    45     8    18
 C    -1.44640  -2.09260  -1.27360    45    44    46    48
 C    -2.00620  -2.29840   0.01310    46    42    21    45
 C    -3.16540  -0.37660  -1.47740    47    40    43    48
 C    -2.02870  -0.98700  -1.95520    48    47     6    45
