    48
C48-C1-54                                                                       
 C     1.51920  -1.40940  -1.88110     1     6     2    31
 C     0.42860  -0.67330  -2.33460     2     1     3     7
 C    -0.82550  -1.26840  -2.13240     3     4     2    22
 C    -2.02400  -0.55320  -2.08660     4     9     5     3
 C    -1.95530   0.81230  -2.04330     5     4     8    10
 C     2.74860  -0.86260  -1.63060     6    33     1    14
 C     0.51810   0.76900  -2.35680     7     8     2    15
 C    -0.72330   1.45430  -2.21060     8    16     5     7
 C    -2.90190  -1.22100  -1.30120     9     4    17    12
 C    -2.69970   1.48850  -1.03940    10    13    11     5
 C    -3.39510   0.72600  -0.10390    11    12    10    39
 C    -3.67310  -0.61500  -0.33830    12    19     9    11
 C    -1.88500   2.49560  -0.65360    13    10    16    43
 C     2.81270   0.50950  -1.44970    14     6    15    47
 C     1.72880   1.34440  -1.75830    15    14    44     7
 C    -0.78270   2.58260  -1.45160    16    45     8    13
 C    -2.25840  -2.29240  -0.77840    17    18     9    22
 C    -2.58180  -2.32960   0.53310    18    17    19    23
 C    -3.47990  -1.33890   0.78670    19    29    12    18
 C     0.11110  -2.72650  -0.45350    20    31    22    21
 C    -0.12480  -2.49010   0.96980    21    23    27    20
 C    -0.98260  -2.37770  -1.25510    22    17    20     3
 C    -1.46560  -2.19290   1.34490    23    18    24    21
 C    -1.75260  -1.04550   2.11600    24    25    29    23
 C    -0.70240  -0.25470   2.47400    25    24    26    41
 C     0.61140  -0.66890   2.34460    26    25    36    27
 C     0.97500  -1.84800   1.62920    27    28    26    21
 C     2.25960  -1.84900   1.07080    28    30    34    27
 C    -2.95010  -0.50390   1.68850    29    19    24    39
 C     2.54120  -2.35290  -0.19440    30    33    31    28
 C     1.38800  -2.46580  -0.93630    31    30    20     1
 C     3.93530  -0.63280   0.09910    32    33    34    47
 C     3.49930  -1.55510  -0.73710    33    32     6    30
 C     3.13650  -0.76570   1.20250    34    37    32    28
 C     0.57050   1.55790   2.16550    35    36    38    41
 C     1.42130   0.46900   2.27270    36    37    35    26
 C     2.64450   0.42280   1.64980    37    34    36    46
 C     0.92870   2.54590   1.26120    38    42    35    48
 C    -2.92040   0.81830   1.24630    39    29    40    11
 C    -1.86270   1.69900   1.59090    40    43    39    41
 C    -0.76220   1.13630   2.30160    41    25    35    40
 C    -0.11380   3.00920   0.52280    42    45    38    43
 C    -1.44620   2.66010   0.65180    43    42    13    40
 C     1.52380   2.44340  -0.86460    44    45    48    15
 C     0.28290   2.97570  -0.77040    45    16    42    44
 C     3.00620   1.38270   0.69390    46    48    47    37
 C     3.61750   0.64740  -0.29370    47    46    32    14
 C     2.05960   2.34530   0.44390    48    46    38    44
