    48
C48-C1-51                                                                       
 C    -0.60090   1.59420  -2.06880     1     2     7    31
 C    -1.67180   0.73840  -2.24580     2     3     1    43
 C    -2.83080   0.93600  -1.53910     3     4    30     2
 C    -3.24670  -0.25900  -1.06140     4     3     5     8
 C    -2.44000  -1.25270  -1.58260     5     6     4    43
 C    -2.15110  -2.32500  -0.78090     6    13     5     9
 C     0.70850   1.16700  -2.19260     7     1    37    48
 C    -3.57870  -0.11280   0.29270     8    16     4    10
 C    -2.43730  -2.19850   0.57870     9    12    10     6
 C    -2.98610  -1.07030   1.13010    10     9     8    17
 C    -0.38490  -2.97420   0.37330    11    12    24    13
 C    -1.29160  -2.52570   1.23940    12    11     9    18
 C    -0.87260  -2.79980  -0.87030    13    11     6    45
 C    -2.46440   1.56610   1.47970    14    26    16    15
 C    -1.75400   0.67330   2.23170    15    14    17    19
 C    -3.36540   1.23330   0.51640    16    14    30     8
 C    -2.01560  -0.66820   2.09920    17    15    18    10
 C    -0.93230  -1.55540   2.12740    18    12    17    21
 C    -0.42850   1.11860   2.32000    19    15    20    25
 C     0.68300   0.25270   2.42850    20    28    19    21
 C     0.43700  -1.16730   2.25790    21    18    20    23
 C     2.67520  -1.29530   1.19210    22    27    23    42
 C     1.44580  -1.88820   1.47900    23    22    24    21
 C     0.92790  -2.70590   0.43880    24    11    40    23
 C    -0.32310   2.30710   1.54960    25    26    34    19
 C    -1.57300   2.47120   1.00680    26    14    25    29
 C     2.95930  -0.01290   1.61340    27    38    28    22
 C     1.91910   0.77720   2.02270    28    27    20    33
 C    -1.83780   2.68600  -0.32680    29    30    26    31
 C    -2.94530   1.92010  -0.60410    30     3    29    16
 C    -0.66960   2.58920  -1.07310    31    29    32     1
 C     0.61900   2.66370  -0.54820    32    31    37    34
 C     2.03800   1.96280   1.24230    33    35    34    28
 C     0.85570   2.58490   0.86550    34    33    25    32
 C     3.09510   1.70770   0.38240    35    38    33    36
 C     2.74790   1.56640  -0.95400    36    37    46    35
 C     1.51700   1.97290  -1.37300    37    36    32     7
 C     3.78900   0.59550   0.72910    38    39    35    27
 C     3.93710  -0.21190  -0.31990    39    38    46    42
 C     1.34850  -2.45940  -0.88840    40    41    45    24
 C     2.45060  -1.70440  -1.09820    41    40    42    47
 C     3.30510  -1.38790  -0.06510    42    39    41    22
 C    -1.39230  -0.63330  -2.32530    43     2     5    44
 C    -0.05030  -1.12550  -2.37250    44    45    43    48
 C     0.16210  -2.31260  -1.62740    45    13    40    44
 C     3.23440   0.32970  -1.34740    46    39    36    47
 C     2.33050  -0.56130  -1.91090    47    46    41    48
 C     1.05710  -0.20460  -2.41700    48    47     7    44
