    48
C48-C1-30                                                                       
 C    -3.31890   0.20950  -1.05290     1    37     2     5
 C    -3.59300   1.25270  -0.15790     2    12    23     1
 C    -1.30570  -1.55920  -1.89870     3     4    38    10
 C    -1.11190  -0.20020  -2.17480     4     3     5     7
 C    -2.20110   0.63880  -1.81720     5    13     1     4
 C     1.39750  -0.54040  -1.98750     6     8    11     7
 C     0.23450   0.32570  -2.17540     7     4    14     6
 C     2.66780   0.01250  -1.62420     8    21    48     6
 C    -0.66190  -3.19910  -0.52810     9    39    41    10
 C    -0.19000  -2.33790  -1.52780    10    11     9     3
 C     1.13580  -1.89410  -1.55590    11    10    46     6
 C    -2.83710   2.33280  -0.49550    12    13    16     2
 C    -1.98030   1.92520  -1.43740    13    12    15     5
 C     0.38220   1.68580  -1.68900    14    22    15     7
 C    -0.72210   2.36240  -1.21890    15    13    14    18
 C    -2.03110   2.81780   0.47750    16    17    12    18
 C    -2.21740   1.90770   1.45740    17    16    23    35
 C    -0.72510   2.99530   0.06270    18    16    19    15
 C     0.40940   2.68780   0.83300    19    20    18    34
 C     1.62100   2.60570   0.16460    20    36    19    22
 C     2.72200   1.34370  -1.25210    21    22    44     8
 C     1.58310   2.04390  -1.13320    22    21    14    20
 C    -3.19130   1.00660   1.13350    23    24    17     2
 C    -2.78050  -0.21220   1.55330    24    23    25    27
 C    -2.99930  -1.30600   0.74450    25    26    24    37
 C    -2.13520  -2.35790   0.80130    26    39    25    29
 C    -1.50930  -0.06760   2.16180    27    35    28    24
 C    -0.53210  -1.07410   2.12980    28    27    29    32
 C    -0.91310  -2.25650   1.44600    29    26    41    28
 C     2.52470   1.01160   1.52590    30    42    36    31
 C     1.24000   0.70670   2.05130    31    30    34    32
 C     0.84270  -0.70080   2.13310    32    33    28    31
 C     1.73710  -1.59350   1.48240    33    43    40    32
 C     0.19130   1.66950   1.86330    34    35    31    19
 C    -1.14500   1.28220   2.05400    35    17    27    34
 C     2.78330   2.06660   0.65640    36    44    20    30
 C    -3.26770  -1.10870  -0.64540    37    38     1    25
 C    -2.44680  -2.04260  -1.23990    38    39    37     3
 C    -1.97150  -2.95140  -0.39860    39    38     9    26
 C     1.28900  -2.58500   0.62600    40    41    33    46
 C    -0.00040  -2.93950   0.64100    41    40     9    29
 C     3.40150   0.03730   1.08240    42    43    45    30
 C     2.91200  -1.18780   0.97850    43    42    33    47
 C     3.64800   1.56210  -0.27910    44    45    21    36
 C     4.14430   0.35230  -0.03350    45    44    42    48
 C     2.04050  -2.39650  -0.55780    46    47    40    11
 C     3.17650  -1.69920  -0.26570    47    48    46    43
 C     3.70250  -0.62980  -0.90930    48    47    45     8
