    48
C48-Cs-39                                                                       
 C     1.52020   2.15890   1.24130     1     4     2    29
 C     2.45020   2.03100   0.26220     2     1     3     6
 C     3.43230   1.08040   0.34260     3     5     2    28
 C     0.29980   2.63640   0.94120     4    35     1    16
 C     3.76680   0.66920  -0.90490     5     8     3     7
 C     1.98030   2.03990  -1.08170     6     7    17     2
 C     2.75610   1.09680  -1.70190     7     5     6    13
 C     3.76620  -0.65880  -0.85670     8     5    20     9
 C     2.73050  -1.07860  -1.64380     9    24     8    13
 C    -1.47150  -1.17390  -2.07380    10    14    11    43
 C    -0.06720  -1.23400  -2.14470    11    10    23    12
 C     0.67360   0.00410  -2.40290    12    13    15    11
 C     2.05680   0.00870  -2.19390    13     7     9    12
 C    -2.14710   0.00880  -2.25140    14    45    18    10
 C    -0.06440   1.24520  -2.15620    15    18    17    12
 C    -0.21380   2.75830  -0.33110    16     4    46    17
 C     0.61220   2.23800  -1.34760    17     6    16    15
 C    -1.46840   1.18650  -2.08160    18    14    15    48
 C     2.47450  -2.05550   0.27320    19    21    20    24
 C     3.45990  -1.10120   0.38210    20     8    19    28
 C     1.53170  -2.17230   1.24560    21    22    19    26
 C     0.30620  -2.63970   0.94140    22    34    21    25
 C     0.61160  -2.23030  -1.34050    23    24    25    11
 C     1.97020  -2.04350  -1.05730    24     9    23    19
 C    -0.22190  -2.75920  -0.32640    25    22    44    23
 C     1.31260  -1.16370   2.20970    26    27    21    30
 C     2.10300   0.00180   2.11510    27    26    29    28
 C     3.20160  -0.00310   1.21830    28    20     3    27
 C     1.30120   1.16070   2.21210    29     1    27    33
 C    -0.08480  -1.17220   2.47730    30    34    32    26
 C    -2.17010  -0.01500   2.06360    31    41    37    32
 C    -0.84010   0.00070   2.62350    32    33    30    31
 C    -0.08950   1.17300   2.48760    33    35    32    29
 C    -0.64840  -2.18070   1.73940    34    22    39    30
 C    -0.65130   2.17880   1.74360    35     4    38    33
 C    -3.53280   0.68160   0.36900    36    40    37    47
 C    -2.70360   1.11370   1.37790    37    36    38    31
 C    -1.84390   2.15830   1.12130    38    35    37    46
 C    -1.84680  -2.16770   1.12350    39    34    41    44
 C    -3.53220  -0.69350   0.37080    40    41    36    42
 C    -2.71750  -1.13030   1.37890    41    40    39    31
 C    -3.41120  -1.12220  -0.93220    42    45    40    43
 C    -2.30420  -1.92150  -1.20250    43    44    42    10
 C    -1.59710  -2.55940  -0.21790    44    43    25    39
 C    -3.35260   0.01490  -1.64690    45    42    14    47
 C    -1.59280   2.55150  -0.22210    46    48    16    38
 C    -3.42830   1.15330  -0.92710    47    45    36    48
 C    -2.31680   1.92750  -1.21220    48    46    47    18
