    48
C48-C1-53                                                                       
 C     3.33360   0.24840   0.91030     1     2    22     6
 C     3.17420  -1.09850   0.73520     2     1     3     7
 C     2.14280  -1.69730   1.43390     3     2     9     4
 C     1.29160  -0.93630   2.27770     4    40     5     3
 C     1.35960   0.47460   2.36320     5     4     6    45
 C     2.48510   1.03750   1.69260     6    31     1     5
 C     3.30410  -1.32390  -0.62620     7    11    21     2
 C     0.08890  -2.51540   1.33940     8    40     9    12
 C     1.30880  -2.63780   0.77530     9     8    10     3
 C     1.34910  -2.72590  -0.60930    10    11     9    14
 C     2.32290  -2.01980  -1.23340    11     7    20    10
 C    -1.12810  -2.56030   0.73230    12     8    16    13
 C    -1.16580  -2.53460  -0.68000    13    15    14    12
 C     0.11200  -2.48110  -1.26430    14    13    10    19
 C    -2.20260  -1.78250  -1.22220    15    13    18    25
 C    -1.97370  -1.69950   1.45210    16    17    12    41
 C    -3.07300  -1.15700   0.86120    17    16    42    18
 C    -3.31150  -1.33520  -0.50160    18    38    17    15
 C     0.38340  -1.43150  -2.18440    19    20    26    14
 C     1.71320  -1.18890  -2.10640    20    11    19    24
 C     3.39730  -0.08390  -1.23660    21    22     7    24
 C     3.59610   0.86810  -0.29730    22    23    21     1
 C     2.88860   1.99930  -0.28110    23    22    31    29
 C     2.28790   0.04900  -2.09100    24    20    21    28
 C    -1.87880  -0.69690  -2.08370    25    34    26    15
 C    -0.54530  -0.41220  -2.41360    26    19    25    27
 C    -0.03950   0.96120  -2.27310    27    36    26    28
 C     1.40730   1.16380  -2.07420    28    24    29    27
 C     1.82280   2.19180  -1.17970    29    33    23    28
 C     1.14740   2.70760   0.84810    30    31    33    44
 C     2.35030   2.18840   0.96530    31    30     6    23
 C    -0.48640   2.65370  -0.62340    32    33    36    43
 C     0.83060   2.78430  -0.46660    33    32    30    29
 C    -2.84070   0.23990  -1.81630    34    38    25    35
 C    -2.35320   1.47540  -1.45580    35    34    36    37
 C    -1.02370   1.85100  -1.64910    36    35    32    27
 C    -3.05370   1.73510  -0.25930    37    39    46    35
 C    -3.82040  -0.17750  -0.97590    38    39    18    34
 C    -3.90500   0.71210   0.01490    39    38    37    42
 C     0.07800  -1.52760   2.25010    40     8    41     4
 C    -1.13720  -0.94770   2.30950    41    40    48    16
 C    -3.39040   0.16330   1.14950    42    39    17    47
 C    -1.04390   2.56380   0.67540    43    46    44    32
 C     0.03370   2.33640   1.53080    44    30    43    45
 C     0.04590   1.16100   2.35050    45    44    48     5
 C    -2.25510   2.00060   0.82250    46    43    37    47
 C    -2.39720   0.95020   1.73780    47    42    46    48
 C    -1.23120   0.45650   2.38080    48    41    47    45
