    48
C48-C1-179                                                                      
 C    -0.50450  -2.24880   1.59920     1    13     2     6
 C    -1.26900  -1.18140   2.12430     2     1     3     7
 C    -2.55270  -0.99930   1.53960     3    31     4     2
 C    -2.89620  -1.70100   0.38370     4     5    34     3
 C    -1.99440  -2.53440  -0.22320     5     6     4    48
 C    -0.83370  -2.90480   0.37450     6     5    44     1
 C    -0.46650  -0.00750   2.52890     7     8    10     2
 C    -1.09550   1.24510   2.24230     8    30     9     7
 C    -0.37480   2.31820   1.71200     9    12     8    17
 C     0.98680  -0.03690   2.44790    10    14    11     7
 C     1.68990   1.12580   1.98540    11    12    20    10
 C     0.99380   2.28510   1.62010    12    18     9    11
 C     0.84080  -2.27560   1.65520    13     1    45    14
 C     1.61980  -1.23770   2.08720    14    13    22    10
 C    -0.48970   3.03520  -0.55130    15    16    17    24
 C     0.86650   3.09270  -0.53930    16    18    28    15
 C    -1.15860   2.82740   0.63400    17    23    15     9
 C     1.64180   2.83100   0.54170    18    21    16    12
 C     3.27340  -0.19220   0.72660    19    22    20    40
 C     2.83370   1.04660   1.12890    20    19    21    11
 C     2.68520   2.04980   0.19420    21    18    20    35
 C     2.74950  -1.32420   1.28760    22    19    41    14
 C    -2.31540   2.14750   0.64290    23    17    30    26
 C    -0.86690   2.16790  -1.61360    24    25    29    15
 C    -2.05370   1.39800  -1.57770    25    24    27    26
 C    -2.92470   1.52220  -0.44020    26    23    32    25
 C    -1.93840   0.09080  -2.12250    27    33    39    25
 C     1.38130   2.31550  -1.52450    28    16    35    29
 C     0.34250   1.67600  -2.16680    29    28    38    24
 C    -2.34380   1.28460   1.68190    30    31    23     8
 C    -3.08140   0.24220   1.34520    31    30     3    32
 C    -3.57840   0.39760   0.07190    32    34    31    26
 C    -2.68610  -0.94980  -1.60040    33    48    34    27
 C    -3.46560  -0.80400  -0.51100    34    32    33     4
 C     2.55330   1.70570  -1.15450    35    36    28    21
 C     2.73710   0.40080  -1.53050    36    35    40    37
 C     1.70940  -0.30690  -2.20820    37    36    38    46
 C     0.47890   0.32400  -2.54300    38    39    29    37
 C    -0.68120  -0.45100  -2.50170    39    38    47    27
 C     3.27430  -0.49370  -0.63950    40    42    36    19
 C     2.58920  -2.32280   0.35610    41    45    42    22
 C     2.78150  -1.73610  -0.84100    42    41    40    46
 C     0.52630  -2.37750  -1.58150    43    47    46    44
 C     0.39220  -3.05800  -0.30880    44    45     6    43
 C     1.40670  -2.90770   0.59010    45    41    13    44
 C     1.73980  -1.65940  -1.75680    46    42    43    37
 C    -0.65250  -1.80190  -2.06720    47    48    43    39
 C    -1.87080  -2.01510  -1.49470    48    33    47     5
