    48
C48-Cs-148                                                                      
 C    -1.13860  -0.38250  -2.57840     1     3     8    23
 C    -2.34540   1.44280  -1.69810     2     4     3    21
 C    -2.30910   0.11270  -2.03940     3     2     1     9
 C    -3.04150   1.56020  -0.57140     4     5     2    10
 C    -2.36640   2.29220   0.28720     5     4    47    30
 C    -1.40960  -2.39970  -1.31200     6    11     8     7
 C    -2.45140  -1.79000  -0.59220     7     9     6    12
 C    -0.69680  -1.66500  -2.27040     8     1     6    16
 C    -2.97880  -0.58900  -1.00970     9    10     7     3
 C    -3.35550   0.35540  -0.08440    10     4     9    40
 C    -0.67590  -3.08920  -0.40120    11    14    13     6
 C    -2.19250  -1.99230   0.79700    12    13    41     7
 C    -1.10140  -2.83550   0.85760    13    11    12    44
 C     0.67480  -3.09730  -0.40160    14    11    45    15
 C     1.40450  -2.40330  -1.31370    15    14    16    19
 C     0.70590  -1.66040  -2.27670    16    17    15     8
 C     1.13800  -0.38030  -2.58770    17    18    16    23
 C     2.30510   0.11840  -2.04620    18    24    17    20
 C     2.44010  -1.78860  -0.59010    19    20    15    36
 C     2.96310  -0.58410  -1.00840    20    27    19    18
 C    -1.19990   2.21350  -1.62890    21     2    22    30
 C     0.00230   1.79310  -2.20010    22    21    25    23
 C    -0.00090   0.44650  -2.71200    23    17     1    22
 C     2.34160   1.44840  -1.70030    24    26    18    25
 C     1.19790   2.21760  -1.61660    25    24    22    28
 C     3.03640   1.57100  -0.57160    26    35    24    27
 C     3.33710   0.36110  -0.08300    27    26    20    39
 C     1.21770   2.78520  -0.29990    28    35    29    25
 C     0.00110   2.90440   0.39680    29    30    28    31
 C    -1.20690   2.78330  -0.30810    30     5    29    21
 C     0.00480   2.33480   1.71380    31    32    46    29
 C     1.15100   1.64580   2.17920    32    33    34    31
 C     0.66970   0.50380   2.74360    33    48    32    37
 C     2.31210   1.58390   1.46750    34    32    35    39
 C     2.38160   2.30550   0.30490    35    26    34    28
 C     2.18960  -1.99840   0.79980    36    45    38    19
 C     1.15430  -0.76060   2.54430    37    33    43    38
 C     2.29850  -0.90930   1.71010    38    39    36    37
 C     2.89300   0.28680   1.23250    39    27    38    34
 C    -2.89730   0.28480   1.22440    40    10    41    47
 C    -2.29030  -0.90650   1.70770    41    12    40    42
 C    -1.14780  -0.74610   2.53940    42    48    41    43
 C    -0.00220  -1.58800   2.49200    43    44    42    37
 C     0.00580  -2.67550   1.66730    44    43    45    13
 C     1.10410  -2.85160   0.85940    45    14    44    36
 C    -1.14890   1.65120   2.17450    46    48    47    31
 C    -2.30540   1.57540   1.46400    47    46     5    40
 C    -0.66860   0.51720   2.74270    48    33    46    42
