    48
C48-C1-116                                                                      
 C     3.59010  -0.70590  -0.22800     1     2    29     6
 C     3.08750  -1.69300   0.52310     2     3     1    15
 C     2.11210  -2.45900   0.03100     3     2     8     4
 C     1.48600  -2.26640  -1.17490     4     3    10     5
 C     1.84290  -1.11670  -1.94870     5     4     6    13
 C     2.97930  -0.37660  -1.45280     6    38     1     5
 C    -0.08380  -2.72500   0.41140     7     8    24    10
 C     1.12910  -2.55300   0.96660     8     7     3    18
 C    -0.85130  -2.07710  -1.70210     9    10    11    14
 C     0.15260  -2.61610  -0.98790    10     9     4     7
 C    -2.09220  -1.96970  -1.18460    11     9    44    23
 C     0.74070   1.02010  -2.43640    12    37    13    46
 C     0.69720  -0.39590  -2.51580    13    14    12     5
 C    -0.61460  -0.90840  -2.43760    14     9    13    48
 C     2.62240  -1.18250   1.70340    15     2    16    18
 C     2.90620   0.16060   1.68250    16    15    29    17
 C     1.83140   0.97910   2.02300    17    16    30    20
 C     1.37420  -1.69840   2.00980    18     8    15    19
 C     0.28700  -0.93470   2.44830    19    18    20    25
 C     0.59370   0.46400   2.46850    20    22    17    19
 C    -1.71310   1.05240   2.12190    21    22    36    26
 C    -0.39760   1.37960   2.18090    22    21    20    32
 C    -2.38460  -2.09080   0.16970    23    42    11    24
 C    -1.26840  -2.26840   1.02330    24     7    23    25
 C    -1.07900  -1.28490   2.09930    25    26    19    24
 C    -2.11370  -0.30380   2.14320    26    43    21    25
 C     3.28550   1.50230  -0.22850    27    29    38    28
 C     2.25700   2.37400   0.11260    28    31    27    30
 C     3.63880   0.45240   0.53440    29    27     1    16
 C     1.52660   2.13460   1.27610    30    32    28    17
 C     1.43910   2.49160  -0.98160    31    37    35    28
 C     0.14960   2.34350   1.33030    32    30    22    34
 C    -1.98030   2.31140   0.19440    33    36    34    40
 C    -0.64510   2.70530   0.19820    34    33    35    32
 C     0.08090   2.59660  -0.98640    35    31    34    46
 C    -2.58950   1.72320   1.29830    36    41    21    33
 C     1.84600   1.61310  -1.91200    37    38    31    12
 C     2.93230   0.99270  -1.46830    38    37     6    27
 C    -3.61360   0.85540  -0.39850    39    41    45    40
 C    -2.57790   1.65380  -0.91930    40    39    33    47
 C    -3.56920   0.90300   0.95100    41    36    39    43
 C    -3.39390  -1.18600   0.37840    42    43    23    45
 C    -3.30680  -0.33920   1.42520    43    42    41    26
 C    -2.77060  -0.91100  -1.68930    44    45    11    48
 C    -3.63840  -0.45550  -0.77920    45    44    39    42
 C    -0.40680   1.74040  -2.00240    46    47    35    12
 C    -1.69400   1.21540  -1.95120    47    46    48    40
 C    -1.80440  -0.14460  -2.31570    48    44    47    14
