    48
C48-C1-48                                                                       
 C     1.69990  -2.67820  -0.17820     1     2     3    33
 C     0.68120  -3.06780   0.63080     2     1    25     8
 C     2.74650  -1.91110   0.24600     3     1     4     9
 C     3.47100  -1.05500  -0.54940     4    47     3    34
 C    -0.97910  -2.16100   1.70950     5     6    27     8
 C    -1.66780  -1.03320   2.00430     6     5     7    14
 C    -0.95120   0.13690   2.36880     7    16     6    11
 C     0.38300  -2.24240   1.71010     8     5     2    10
 C     2.43060  -1.10740   1.38230     9    19    10     3
 C     1.17660  -1.14020   2.02440    10     8     9    11
 C     0.51270   0.11600   2.33430    11    10    12     7
 C     1.22970   1.30780   1.88510    12    20    13    11
 C     0.42510   2.33790   1.37610    13    15    12    46
 C    -2.82190  -1.05200   1.17020    14    18    23     6
 C    -0.90640   2.32790   1.48030    15    13    38    16
 C    -1.63030   1.29930   1.99250    16    15    17     7
 C    -2.79360   1.32020   1.24990    17    18    16    39
 C    -3.35700   0.16680   0.77160    18    17    24    14
 C     3.14780   0.03290   1.16220    19     9    47    20
 C     2.50940   1.24120   1.32310    20    19    12    44
 C    -2.57630  -1.71460  -1.05680    21    22    23    28
 C    -3.01680  -0.46510  -1.38830    22    24    29    21
 C    -2.62490  -2.14330   0.28130    23    27    21    14
 C    -3.58220   0.45110  -0.56850    24    22    40    18
 C    -0.49950  -3.28280  -0.01790    25    27     2    26
 C    -0.31550  -2.64200  -1.22560    26    28    25    33
 C    -1.56260  -2.88190   0.71010    27    25    23     5
 C    -1.32430  -1.85100  -1.72120    28    26    30    21
 C    -2.04990   0.18050  -2.08620    29    30    22    43
 C    -0.97920  -0.61940  -2.29380    30    29    28    31
 C     0.33070  -0.11690  -2.33110    31    30    32    35
 C     1.39690  -1.01460  -1.94140    32    34    33    31
 C     1.01350  -2.24060  -1.33990    33    26    32     1
 C     2.62920  -0.49710  -1.53740    34    37    32     4
 C     0.47310   1.31020  -2.03290    35    36    42    31
 C     1.73130   1.68360  -1.52010    36    37    45    35
 C     2.82340   0.85820  -1.43090    37    48    36    34
 C    -1.52550   2.88020   0.40950    38    39    15    41
 C    -2.73430   2.29840   0.27740    39    40    38    17
 C    -3.06880   1.69540  -0.87670    40    39    24    43
 C    -0.50580   2.94420  -0.51620    41    38    46    42
 C    -0.70390   2.07700  -1.65120    42    43    41    35
 C    -1.99950   1.51160  -1.77060    43    29    40    42
 C     2.97230   2.02840   0.24470    44    48    45    20
 C     1.89940   2.56950  -0.44100    45    46    44    36
 C     0.73270   2.93740   0.12370    46    45    41    13
 C     4.00440   0.01890   0.09440    47    48     4    19
 C     3.75480   1.18790  -0.48360    48    47    44    37
