    48
C48-C2-37                                                                       
 C    -4.07100   0.03450   0.19820     1    30     4     2
 C    -3.33130   0.13840   1.34030     2     1    33     9
 C    -2.75800   1.87290   0.12550     3     5     4     9
 C    -3.52800   0.99690  -0.60160     4     1     3    13
 C    -1.64450   2.46830  -0.39680     5     6     3    11
 C    -0.55740   2.78890   0.33500     6    19     5    10
 C    -0.74070   0.11560   2.42630     7    45    32     8
 C    -1.30660   1.35530   2.03880     8    10     9     7
 C    -2.57320   1.29560   1.41220     9     2     8     3
 C    -0.31060   2.21790   1.56150    10     6     8    48
 C    -1.07410   1.98560  -1.60000    11    12    15     5
 C    -1.64230   0.82000  -2.14970    12    13    11    14
 C    -2.87960   0.35900  -1.66480    13    22     4    12
 C    -0.63120  -0.12420  -2.44660    14    18    20    12
 C     0.32110   2.21750  -1.55540    15    19    17    11
 C     2.56100   1.28670  -1.39590    16    29    17    44
 C     1.29440   1.33870  -2.03290    17    15    18    16
 C     0.74360   0.10430  -2.43290    18    14    27    17
 C     0.58630   2.80400  -0.33600    19     6    42    15
 C    -0.82150  -1.44820  -2.01030    20    21    23    14
 C    -1.99460  -1.80030  -1.41510    21    20    22    35
 C    -3.10750  -0.99510  -1.41000    22    30    21    13
 C     0.41700  -1.93040  -1.63860    23    20    27    24
 C     0.58840  -2.60590  -0.39220    24    25    23    34
 C     1.88550  -2.40370   0.13850    25    28    38    24
 C     2.67690  -1.05960  -1.57500    26    27    28    29
 C     1.41700  -1.06880  -2.08950    27    26    23    18
 C     2.99970  -1.87190  -0.50450    28    40    26    25
 C     3.33260   0.13530  -1.32060    29    41    26    16
 C    -3.84920  -1.19110  -0.29320    30     1    22    31
 C    -3.00760  -1.89860   0.50990    31    30    33    35
 C    -1.42510  -1.06130   2.07990    32    33    36     7
 C    -2.69160  -1.06230   1.57550    33    32     2    31
 C    -0.60690  -2.60510   0.39680    34    35    36    24
 C    -1.89800  -2.42220  -0.14940    35    31    21    34
 C    -0.42430  -1.92650   1.63970    36    39    32    34
 C     3.07290  -0.99440   1.39610    37    40    38    46
 C     1.97070  -1.80890   1.41140    38    39    37    25
 C     0.80890  -1.44590   2.01080    39    38    36    45
 C     3.84620  -1.16390   0.29360    40    41    37    28
 C     4.09570   0.05660  -0.19170    41    40    43    29
 C     1.67330   2.49840   0.41080    42    19    44    48
 C     3.56610   1.02540   0.59630    43    41    44    46
 C     2.77980   1.89640  -0.12050    44    42    43    16
 C     0.63580  -0.12300   2.44270    45     7    39    47
 C     2.87970   0.37240   1.64700    46    37    47    43
 C     1.63800   0.82740   2.13630    47    48    46    45
 C     1.08310   2.00110   1.60400    48    47    10    42
