    48
C48-D2-2                                                                        
 C    -4.76570   0.51370  -0.44670     1     8     2    29
 C    -3.74780   0.06300  -1.27070     2    38     5     1
 C    -1.06480  -0.89240  -1.61570     3    37    39     4
 C    -1.37330   0.50160  -1.74920     4     9     5     3
 C    -2.69890   0.93300  -1.50670     5     2    10     4
 C     2.68370  -0.92400  -1.49280     6    28    42     7
 C     1.35830  -0.49590  -1.74190     7    39     6    27
 C    -4.10330   1.67610  -0.09690     8    11    10     1
 C    -0.27090   1.33290  -1.45690     9    27     4    23
 C    -2.99510   2.10460  -0.80130    10     8    24     5
 C    -3.39820   1.21380   0.98240    11    12    13     8
 C    -3.74420  -0.06260   1.27720    12    11    19    29
 C    -2.10400   1.63450   1.06300    13    11    17    24
 C     1.36420   0.50200   1.74560    14    16    15    34
 C     2.69310   0.91930   1.50450    15    44    22    14
 C     0.26120   1.32970   1.44900    16    17    14    21
 C    -1.05780   0.88960   1.60730    17    13    16    18
 C    -1.37190  -0.49920   1.75010    18    35    19    17
 C    -2.69510  -0.93010   1.51360    19    12    31    18
 C     1.85460   2.39970   0.07570    20    21    22    26
 C     0.52180   2.36420   0.46050    21    20    23    16
 C     3.00370   2.08020   0.79110    22    46    20    15
 C    -0.53720   2.38060  -0.48120    23    24    21     9
 C    -1.85610   2.42910  -0.07370    24    23    10    13
 C     3.39260   1.21640  -0.98220    25    28    26    46
 C     2.09800   1.63240  -1.07400    26    25    27    20
 C     1.04890   0.89650  -1.61310    27    26     9     7
 C     3.74730  -0.06420  -1.25880    28    25     6    48
 C    -4.76550  -0.53780   0.46860    29    30    12     1
 C    -4.10820  -1.68850   0.10250    30    29    38    31
 C    -2.98730  -2.10090   0.80700    31    30    33    19
 C    -0.52670  -2.36500   0.46880    32    33    41    35
 C    -1.85220  -2.38890   0.05850    33    32    31    37
 C     1.05310  -0.89280   1.61030    34    36    35    14
 C    -0.26920  -1.32830   1.45710    35    34    18    32
 C     2.10770  -1.62960   1.06730    36    45    34    40
 C    -2.11950  -1.63160  -1.08400    37    38     3    33
 C    -3.41250  -1.22160  -0.99190    38     2    37    30
 C     0.25810  -1.32800  -1.44840    39     3     7    41
 C     1.85860  -2.40810  -0.07510    40    41    42    36
 C     0.53250  -2.36800  -0.47030    41    40    32    39
 C     3.00720  -2.08810  -0.78990    42    43    40     6
 C     4.12760  -1.67660  -0.09080    43    45    48    42
 C     3.75100   0.05640   1.27310    44    45    15    47
 C     3.40560  -1.21480   0.98610    45    44    36    43
 C     4.12220   1.67000   0.09200    46    25    47    22
 C     4.78620   0.52070   0.46280    47    46    48    44
 C     4.78740  -0.52110  -0.45780    48    43    28    47
