    48
C48-C1-151                                                                      
 C    -2.68260   1.45680   1.14220     1     3    13    26
 C    -1.45170   2.98320  -0.01400     2     3     4    28
 C    -2.59190   2.28420   0.09340     3     1     2    12
 C    -0.93550   2.70950  -1.24070     4     2     7     5
 C    -1.73790   1.77790  -1.86140     5    12     6     4
 C    -1.07490   0.72520  -2.44710     6     5    10    17
 C     0.42860   2.71470  -1.20500     7     4     9    35
 C     2.38930   1.36230  -1.44010     8    46    11     9
 C     1.14600   1.75680  -1.95950     9     8     7    10
 C     0.33080   0.72730  -2.54190    10    42     6     9
 C     2.85770   1.79140  -0.19560    11    47    34     8
 C    -2.80530   1.52740  -1.03250    12     3     5    16
 C    -3.10530   0.25400   0.68490    13    14     1    16
 C    -2.55340  -0.73480   1.42560    14    13    15    25
 C    -2.32810  -1.95120   0.85700    15    14    20    19
 C    -3.15140   0.22500  -0.71060    16    12    13    18
 C    -1.51490  -0.60100  -2.25110    17    43     6    18
 C    -2.58650  -0.90700  -1.33200    18    16    19    17
 C    -2.35120  -2.07960  -0.57020    19    22    18    15
 C    -1.26850  -2.68700   1.31500    20    21    15    23
 C    -0.77320  -3.37710   0.30040    21    20    31    22
 C    -1.32030  -2.96470  -0.84660    22    21    44    19
 C    -0.22830  -2.10360   2.01970    23    20    24    32
 C    -0.36700  -0.79470   2.52050    24    29    23    25
 C    -1.59000  -0.12300   2.26830    25    26    24    14
 C    -1.66090   1.27150   2.05120    26     1    25    27
 C    -0.48550   2.05460   1.97550    27    30    26    28
 C    -0.38880   2.97350   0.86620    28     2    35    27
 C     0.78310  -0.00040   2.54810    29    24    41    30
 C     0.70880   1.39840   2.30690    30    33    27    29
 C     0.55430  -3.26900   0.29080    31    21    37    32
 C     0.98110  -2.52320   1.39140    32    31    40    23
 C     1.89540   1.72870   1.71410    33    36    30    34
 C     1.98500   2.51980   0.59170    34    35    33    11
 C     0.81380   3.03830   0.12320    35    34    28     7
 C     2.71740   0.65730   1.61810    36    47    33    41
 C     0.92180  -2.86000  -0.96580    37    31    38    44
 C     2.00860  -2.02800  -1.06660    38    37    45    39
 C     2.75610  -1.56500   0.04650    39    48    38    40
 C     2.09360  -1.68140   1.32650    40    32    41    39
 C     2.02890  -0.46050   2.04510    41    36    40    29
 C     0.73590  -0.61210  -2.53500    42    45    43    10
 C    -0.38130  -1.42840  -2.37570    43    44    42    17
 C    -0.28120  -2.61360  -1.67490    44    22    43    37
 C     1.94720  -0.94490  -1.95150    45    46    42    38
 C     2.75200   0.02420  -1.46200    46    45    48     8
 C     3.41960   0.71830   0.46770    47    48    36    11
 C     3.35970  -0.36820  -0.30670    48    47    46    39
