    48
C48-C1-44                                                                       
 C    -3.95500   0.17790  -0.56540     1    29     4     2
 C    -3.11720   0.86020  -1.39950     2     1    32     8
 C    -2.48220  -1.21020  -1.55970     3     5     4     8
 C    -3.42250  -1.07220  -0.55130     4     1     3    11
 C    -1.41990  -2.04850  -1.43020     5     3    17     9
 C    -0.49960   1.67920  -1.90270     6    46    31     7
 C    -0.91260   0.42730  -2.45900     7     8     6    18
 C    -2.23380   0.05990  -2.10390     8     2     3     7
 C    -1.16320  -2.61330  -0.15770     9    13    10     5
 C    -1.83980  -2.10700   0.96780    10    11     9    12
 C    -3.00900  -1.37210   0.74990    11    22     4    10
 C    -0.90540  -1.64460   1.93880    12    15    20    10
 C     0.18230  -2.84020  -0.13260    13    16    14     9
 C     1.05360  -2.58200   0.87850    14    13    15    40
 C     0.47400  -1.87570   1.91600    15    14    27    12
 C     0.76550  -2.44840  -1.28060    16    13    45    17
 C    -0.18370  -1.81070  -2.02980    17    16     5    18
 C     0.15090  -0.53640  -2.55100    18    17    19     7
 C     1.51810  -0.15620  -2.37210    19    48    18    44
 C    -1.08050  -0.33070   2.41120    20    21    23    12
 C    -2.21150   0.36930   2.08310    21    20    22    34
 C    -3.29430  -0.19100   1.43990    22    29    21    11
 C     0.18350   0.22760   2.52570    23    20    27    24
 C     0.42250   1.55610   2.05910    24    25    23    33
 C     1.75320   1.75340   1.62630    25    28    37    24
 C     2.43910  -0.47410   1.94280    26    28    27    42
 C     1.15990  -0.76110   2.36200    27    26    15    23
 C     2.79480   0.83660   1.74450    28    39    26    25
 C    -3.90130   0.73140   0.65370    29     1    22    30
 C    -3.03870   1.77790   0.61130    30    29    32    34
 C    -1.28980   2.27930  -0.91340    31    32    35     6
 C    -2.57470   1.91090  -0.68230    32    31    30     2
 C    -0.70920   2.16240   1.42320    33    34    24    35
 C    -2.02300   1.66990   1.56540    34    30    33    21
 C    -0.38550   2.60660   0.09990    35    38    31    33
 C     3.17870   1.79820  -0.11330    36    39    47    37
 C     2.01620   2.36920   0.38440    37    38    36    25
 C     0.89880   2.57340  -0.39270    38    35    37    46
 C     3.70110   0.90990   0.75250    39    28    36    41
 C     2.27800  -2.17740   0.32040    40    42    14    45
 C     3.84490  -0.31410   0.17690    41    39    43    42
 C     3.09250  -1.21550   0.92980    42    41    40    26
 C     3.44050  -0.16200  -1.13530    43    44    47    41
 C     2.51720  -0.97150  -1.74930    44    43    45    19
 C     2.05150  -2.07490  -1.07690    45    16    44    40
 C     0.82820   1.96460  -1.66120    46    48     6    38
 C     3.03030   1.13680  -1.30870    47    48    43    36
 C     1.87620   1.15350  -2.03100    48    47    46    19
