    48
C48-C1-178                                                                      
 C    -2.52110  -1.55030   1.13370     1    32     2     5
 C    -3.23770  -0.44460   0.74460     2    11     1    25
 C     0.03980  -2.67580   1.20500     3    33     7     4
 C    -0.28440  -1.69110   2.18830     4     6     5     3
 C    -1.57920  -1.12470   2.11020     5     4    14     1
 C     0.76090  -0.82410   2.53960     6     9     4    15
 C     1.29990  -2.65870   0.55280     7     8     3    37
 C     2.30640  -1.89890   1.05800     8     7     9    10
 C     2.03090  -1.02020   2.07440     9    47     6     8
 C     3.15380  -1.21620   0.21940    10     8    46    36
 C    -2.86600   0.59740   1.52990    11    12     2    14
 C    -2.88640   1.69640   0.76660    12    13    11    24
 C    -1.82980   2.50750   0.81590    13    12    19    17
 C    -1.78310   0.26190   2.31590    14    11     5    16
 C     0.59240   0.58310   2.59310    15    16     6    21
 C    -0.67290   1.14820   2.43150    16    15    17    14
 C    -0.72060   2.31240   1.61560    17    13    23    16
 C    -0.08860   2.94920  -0.43090    18    19    20    23
 C    -1.42570   2.75850  -0.43780    19    13    18    28
 C     0.62650   2.46190  -1.48710    20    45    18    29
 C     1.78730   1.14810   2.05230    21    47    22    15
 C     1.71180   2.19050   1.08120    22    23    21    44
 C     0.41750   2.71380   0.88060    23    22    17    18
 C    -3.12010   1.32950  -0.53330    24    12    25    28
 C    -3.38030  -0.01740  -0.58910    25    24    26     2
 C    -2.71040  -0.77730  -1.52500    26    27    25    31
 C    -2.24840  -2.01330  -1.15040    27    34    26    32
 C    -2.13070   1.93520  -1.31400    28    19    24    30
 C     0.01490   1.48470  -2.32450    29    30    43    20
 C    -1.35620   1.16400  -2.21240    30    29    28    31
 C    -1.66590  -0.21360  -2.31500    31    30    39    26
 C    -2.13100  -2.44520   0.16890    32    33     1    27
 C    -0.88010  -2.98180   0.23710    33    35    32     3
 C    -1.07370  -2.27810  -1.77200    34    35    27    39
 C    -0.24920  -2.94850  -0.96320    35    34    37    33
 C     2.82610  -1.05140  -1.12250    36    41    10    38
 C     1.06620  -2.67780  -0.84760    37    35     7    38
 C     1.68510  -1.69390  -1.68030    38    36    37    40
 C    -0.63200  -1.18170  -2.45690    39    34    40    31
 C     0.74980  -0.86630  -2.47770    40    43    39    38
 C     3.07340   0.27850  -1.33740    41    42    36    48
 C     2.17540   1.01070  -1.98050    42    41    45    43
 C     1.03410   0.51710  -2.53370    43    42    40    29
 C     2.57170   2.02930  -0.05260    44    45    48    22
 C     1.91420   2.12020  -1.27200    45    42    20    44
 C     3.50020  -0.00060   0.79520    46    48    47    10
 C     2.70770   0.12640   1.87730    47     9    46    21
 C     3.42660   0.92900  -0.16740    48    46    41    44
