    48
C48-C1-140                                                                      
 C    -2.91160   1.05710  -0.89810     1     2    28     5
 C    -3.21860  -0.27670  -1.04910     2    21     9     1
 C    -0.87170   2.91900  -0.29510     3     7    29     4
 C    -0.85410   2.32520  -1.56830     4     3     6     5
 C    -1.89130   1.37610  -1.84190     5     8     1     4
 C     0.45450   2.01760  -2.03520     6    11     4    47
 C     0.30020   3.02910   0.43230     7    31    46     3
 C    -1.60120   0.15960  -2.50150     8     9    10     5
 C    -2.36250  -0.81380  -1.96120     9     8     2    12
 C    -0.31090  -0.12190  -2.83060    10    11     8    15
 C     0.64560   0.82210  -2.68980    11    20    10     6
 C    -1.82820  -2.01460  -1.50800    12    13     9    16
 C    -2.49710  -2.21400  -0.31570    13    26    12    21
 C     1.65700  -1.07310  -2.22120    14    17    20    15
 C     0.29590  -1.34820  -2.43280    15    14    10    16
 C    -0.43350  -2.27700  -1.62690    16    12    15    19
 C     2.38260  -1.67310  -1.23450    17    14    44    18
 C     1.67630  -2.49060  -0.32510    18    27    17    19
 C     0.29750  -2.78290  -0.46670    19    18    25    16
 C     1.82360   0.28940  -2.38390    20    11    42    14
 C    -3.30310  -1.13270  -0.01000    21     2    22    13
 C    -2.96850  -0.69550   1.25440    22    24    21    23
 C    -2.70110   0.63720   1.48930    23    22    34    28
 C    -2.02670  -1.57880   1.69890    24    26    22    32
 C    -0.43860  -2.79840   0.76610    25    26    40    19
 C    -1.76280  -2.52230   0.75800    26    13    25    24
 C     2.23390  -2.19630   0.91710    27    41    39    18
 C    -2.76200   1.55640   0.39260    28    29     1    23
 C    -1.80410   2.47670   0.63130    29    28    30     3
 C    -1.17890   2.21160   1.80300    30    31    29    34
 C     0.10120   2.55700   1.68460    31    30     7    37
 C    -0.86870  -1.26220   2.36920    32    24    40    33
 C    -0.56670   0.08650   2.70600    33    32    34    36
 C    -1.58600   1.01140   2.28700    34    30    23    33
 C     1.80280  -0.50590   2.30180    35    38    39    36
 C     0.83740   0.48410   2.61300    36    35    37    33
 C     1.14180   1.77150   2.04820    37    31    45    36
 C     2.92440  -0.22820   1.52340    38    41    48    35
 C     1.41220  -1.81810   1.94380    39    40    27    35
 C     0.10860  -2.15160   1.90610    40    39    32    25
 C     3.18270  -1.28190   0.73620    41    44    27    38
 C     2.52010   1.11870  -1.54160    42    20    43    47
 C     3.26360   0.50280  -0.54530    43    42    44    48
 C     3.30790  -0.89380  -0.52540    44    41    43    17
 C     2.14950   1.94580   1.05710    45    48    46    37
 C     1.53870   2.66920   0.00030    46     7    47    45
 C     1.66060   2.20310  -1.29560    47    46    42     6
 C     3.02810   0.92610   0.78710    48    45    38    43
