    48
C48-C2-153                                                                      
 C    -3.34440  -0.58400   0.37180     1     2    31    48
 C    -2.95760  -1.59350  -0.38410     2     1     5    27
 C    -1.57090  -1.69620  -1.99920     3     5    25     4
 C    -0.47290  -1.06130  -2.47320     4     3    15     6
 C    -2.64810  -1.05060  -1.60020     5     3     2    11
 C    -0.45440   0.35580  -2.57580     6     7     4    12
 C     0.82030   0.91530  -2.50890     7    13     6     8
 C     1.98330   0.15060  -2.14430     8     9    14     7
 C     2.79900   1.02770  -1.44210     9    10    16     8
 C     2.20720   2.20100  -1.42050    10     9    13    20
 C    -2.72850   0.31530  -1.58310    11     5    48    12
 C    -1.60390   1.10330  -2.01530    12    11    44     6
 C     1.02200   2.17900  -2.00860    13    10    45     7
 C     1.88700  -1.20210  -1.79800    14     8    15    18
 C     0.63820  -1.80990  -2.01490    15    14     4    24
 C     3.20760   0.65200  -0.17970    16    17     9    21
 C     3.20250  -0.66550   0.17490    17    16    19    18
 C     2.61890  -1.65550  -0.66800    18    22    14    17
 C     2.80200  -1.00550   1.44980    19    29    17    42
 C     2.06160   2.59360  -0.15950    20    10    38    21
 C     2.61750   1.63350   0.68280    21    20    41    16
 C     2.06670  -2.63060   0.15420    22    29    23    18
 C     0.78250  -3.08300  -0.00140    23    24    22    28
 C     0.11160  -2.81440  -1.15370    24    25    23    15
 C    -1.22010  -2.65910  -1.12400    25    24     3    27
 C    -1.26780  -2.29780   1.23080    26    28    27    30
 C    -1.99080  -2.48950   0.01700    27     2    25    26
 C     0.07880  -2.73820   1.21590    28    37    26    23
 C     2.20620  -2.18700   1.40000    29    37    19    22
 C    -1.58250  -1.09130   2.01350    30    31    26    33
 C    -2.69320  -0.30260   1.56060    31    32     1    30
 C    -2.63220   1.06010   1.56450    32    35    31    47
 C    -0.44210  -0.34880   2.59560    33    36    34    30
 C    -0.46100   1.06610   2.49680    34    35    40    33
 C    -1.55460   1.68230   1.98920    35    32    46    34
 C     0.83590  -0.91030   2.53640    36    37    33    42
 C     1.03300  -2.15060   2.00230    37    29    36    28
 C     0.77360   3.05050  -0.01040    38    39    20    45
 C     0.12520   2.77750   1.15090    39    46    38    40
 C     0.65680   1.81090   2.04820    40    41    34    39
 C     1.90470   1.20350   1.83650    41    42    40    21
 C     2.00480  -0.14100   2.18990    42    19    41    36
 C    -2.00890   2.49220  -0.02440    43    47    46    44
 C    -1.28360   2.31540  -1.23920    44    45    43    12
 C     0.05730   2.75860  -1.23140    45    13    44    38
 C    -1.21250   2.63340   1.10770    46    35    39    43
 C    -2.99680   1.60580   0.36020    47    48    32    43
 C    -3.37840   0.58710  -0.38580    48    47    11     1
