    48
C48-C1-181                                                                      
 C    -1.13930   1.69530   1.88150     1     2     8    28
 C    -2.17030   0.82380   1.95350     2     1     6    23
 C    -2.90890  -1.07900   1.30810     3    14    25     6
 C    -0.41450  -2.19140   1.57470     4     5    10    13
 C     0.81940  -2.53370   1.18890     5     4    12    44
 C    -1.95000  -0.51120   2.13750     6     2     3    10
 C     1.17590   2.11550   1.59170     7    17    35     8
 C     0.19290   1.32290   2.18920     8     7     1     9
 C     0.50250  -0.09730   2.38670     9    10     8    11
 C    -0.64630  -0.99530   2.28630    10     6     4     9
 C     1.84450  -0.55980   1.97460    11    12    18     9
 C     1.97320  -1.85120   1.39840    12     5    16    11
 C    -1.29690  -2.63380   0.55900    13    14    31     4
 C    -2.51680  -2.05390   0.42510    14    13    15     3
 C    -2.93180  -1.63740  -0.81030    15    14    19    21
 C     2.80510  -2.15900   0.30670    16    46    43    12
 C     2.40850   1.64530   1.27890    17     7    18    47
 C     2.80220   0.35690   1.45210    18    17    45    11
 C    -3.65970  -0.47330  -0.64180    19    25    20    15
 C    -3.02590   0.41720  -1.46430    20    22    19    26
 C    -1.91790  -1.52890  -1.75690    21    22    15    32
 C    -2.01250  -0.21840  -2.11880    22    34    21    20
 C    -3.18320   1.06730   1.07000    23    25     2    24
 C    -2.64450   2.03220   0.22830    24    23    28    26
 C    -3.69290  -0.12930   0.67650    25    23    19     3
 C    -2.53080   1.65530  -1.12410    26    20    27    24
 C    -1.29180   1.81580  -1.75940    27    30    26    34
 C    -1.47970   2.55920   0.80520    28    29    24     1
 C    -0.41100   3.00160   0.06870    29    35    28    30
 C    -0.27340   2.56670  -1.25520    30    27    42    29
 C    -0.44390  -2.93830  -0.52330    31    44    13    32
 C    -0.64920  -2.10660  -1.67900    32    21    31    38
 C     0.38750   0.08490  -2.38390    33    34    41    38
 C    -0.93460   0.58080  -2.33700    34    22    27    33
 C     0.85160   2.96390   0.53820    35    29    36     7
 C     1.80930   2.79660  -0.40940    36    47    35    42
 C     1.79500  -1.75380  -1.59610    37    39    43    38
 C     0.53780  -1.35420  -2.10800    38    37    32    33
 C     2.78430  -0.83970  -1.34600    39    40    37    46
 C     2.67360   0.50200  -1.53760    40    39    48    41
 C     1.45070   1.01940  -2.03310    41    40    42    33
 C     1.07090   2.28380  -1.47850    42    30    36    41
 C     1.94700  -2.71830  -0.60840    43    44    16    37
 C     0.81160  -3.10040  -0.05350    44    43    31     5
 C     3.67070   0.05480   0.37960    45    46    48    18
 C     3.50370  -1.13350  -0.20270    46    45    16    39
 C     2.87190   2.14390   0.08000    47    48    36    17
 C     3.43480   1.09460  -0.50840    48    47    45    40
