    48
C48-C1-69                                                                       
 C     1.58150   2.30860  -0.91280     1    39     3    41
 C    -0.68020   1.91300  -1.51290     2     3    16     8
 C     0.64730   1.64040  -1.74400     3     2     1     4
 C     1.00960   0.33400  -2.24400     4     5     3    18
 C     2.35960  -0.03580  -1.97880     5     6    40     4
 C     2.60050  -1.29510  -1.49530     6    20     5     9
 C    -2.40470   2.26360  -0.16870     7     8    38    46
 C    -1.10610   2.56120  -0.32760     8     7    35     2
 C     3.55740  -1.25580  -0.49770     9    24    10     6
 C     2.92320  -1.93470   0.49440    10    11     9    25
 C     1.84730  -2.60680   0.04370    11    10    13    20
 C    -0.45690  -2.71400   0.48880    12    13    32    15
 C     0.80980  -2.57450   0.91030    13    12    11    26
 C    -2.00640  -2.10990  -0.91050    14    15    43    21
 C    -0.72200  -2.48340  -0.87940    15    14    19    12
 C    -1.75860   1.11800  -1.88160    16    46     2    17
 C    -1.48600  -0.24120  -2.17410    17    16    21    18
 C    -0.08660  -0.64150  -2.25440    18    17    19     4
 C     0.28200  -1.93330  -1.67780    19    20    15    18
 C     1.58260  -2.15780  -1.25630    20     6    19    11
 C    -2.52060  -1.07970  -1.64340    21    14    48    17
 C     3.75810   0.68120   0.80770    22    34    24    23
 C     2.83740   0.11380   1.69890    23    25    22    27
 C     3.98170   0.02480  -0.40080    24     9    40    22
 C     2.43910  -1.19560   1.57940    25    23    10    26
 C     1.11400  -1.56920   1.83100    26    13    25    29
 C     1.78950   1.03520   1.92600    27    33    23    28
 C     0.43310   0.69520   2.19170    28    27    37    29
 C     0.05720  -0.70320   2.23590    29    26    31    28
 C    -2.33790  -0.11330   1.92320    30    36    45    31
 C    -1.30600  -1.08430   1.99910    31    30    32    29
 C    -1.55850  -2.22170   1.16270    32    43    12    31
 C     2.11760   2.14960   1.17410    33    34    41    27
 C     3.23390   1.88360   0.48440    34    33    39    22
 C    -0.19790   2.53030   0.72480    35    41     8    37
 C    -1.96120   1.23530   1.77420    36    38    37    30
 C    -0.60450   1.60910   1.77600    37    36    28    35
 C    -2.95330   1.79300   0.97040    38    42     7    36
 C     2.89630   1.91800  -0.81950    39    40    34     1
 C     3.30640   0.76750  -1.36080    40    39     5    24
 C     1.11750   2.62860   0.39340    41    33    35     1
 C    -3.89840   0.89770   0.62460    42    38    45    47
 C    -2.61910  -2.14930   0.29950    43    44    14    32
 C    -3.60490  -1.25870   0.28530    44    43    45    48
 C    -3.55530  -0.27490   1.22250    45    44    42    30
 C    -2.89410   1.49170  -1.18140    46    47     7    16
 C    -3.89580   0.67780  -0.74060    47    48    46    42
 C    -3.66870  -0.63530  -0.95620    48    47    44    21
