    48
C48-C2-83                                                                       
 C    -2.24700   2.11090  -0.60460     1     2     3    34
 C    -3.31100   1.35400  -0.19300     2     5     1    29
 C    -1.27500   2.53160   0.29950     3    47     1     6
 C    -3.67430  -0.43030   0.99390     4     8     5    31
 C    -3.40600   0.88980   1.09120     5     4     2     7
 C    -1.28960   1.91750   1.57400     6     7    26     3
 C    -2.29650   1.03190   1.90430     7     6     5    13
 C    -2.73760  -1.10750   1.67020     8     4     9    13
 C    -2.18700  -2.05210   0.85400     9     8    10    16
 C    -0.87130  -2.39330   1.02910    10     9    17    11
 C    -0.02910  -1.74810   1.94890    11    24    10    12
 C    -0.49110  -0.52090   2.52550    12    13    11    27
 C    -1.85920  -0.24110   2.32260    13     8     7    12
 C    -1.79930  -1.84840  -1.45480    14    15    16    32
 C    -0.51140  -2.35210  -1.29210    15    19    14    17
 C    -2.74390  -1.83890  -0.42300    16    31    14     9
 C    -0.04040  -2.72540  -0.02800    17    18    10    15
 C     1.28430  -2.54820   0.30910    18    17    21    24
 C     0.38570  -1.66710  -2.10140    19    15    20    33
 C     1.73280  -1.56890  -1.77220    20    19    21    38
 C     2.25200  -2.12670  -0.59470    21    22    18    20
 C     3.30440  -1.36450  -0.17630    22    21    25    37
 C     2.30880  -1.05500   1.90020    23    24    25    28
 C     1.29590  -1.93990   1.58550    24    23    11    18
 C     3.43740  -0.88210   1.10090    25    41    22    23
 C     0.04190   1.73170   1.92800    26     6    42    27
 C     0.50810   0.50870   2.51590    27    28    12    26
 C     1.87840   0.23260   2.30760    28    44    27    23
 C    -3.45980   0.30130  -1.07320    29    31    30     2
 C    -2.46780   0.37650  -2.01950    30    29    32    34
 C    -3.67520  -0.81790  -0.31550    31     4    29    16
 C    -1.67190  -0.73290  -2.31150    32    33    30    14
 C    -0.33090  -0.61230  -2.65740    33    32    19    36
 C    -1.74950   1.56350  -1.79860    34    35     1    30
 C    -0.39830   1.68400  -2.10940    35    34    46    36
 C     0.32290   0.62170  -2.65270    36    39    35    33
 C     3.41310  -0.29890  -1.04300    37    38    40    22
 C     2.43240  -0.37310  -1.99730    38    37    39    20
 C     1.66010   0.74740  -2.30020    39    36    38    45
 C     3.64930   0.81710  -0.27630    40    41    37    48
 C     3.71440   0.43530   1.02740    41    44    25    40
 C     0.87170   2.39500   1.00960    42    43    47    26
 C     2.19230   2.04500   0.87050    43    44    42    48
 C     2.76700   1.11260   1.69010    44    41    43    28
 C     1.79650   1.87880  -1.47150    45    46    48    39
 C     0.50710   2.38440  -1.31370    46    47    45    35
 C     0.04330   2.73460  -0.04780    47     3    42    46
 C     2.72240   1.84210  -0.42650    48    40    45    43
