    44
C44-C2-6                                                                        
 C     4.04790  -0.61170  -0.37230     1     3    31     2
 C     3.02170  -1.51530  -0.52630     2     1    34     4
 C     3.68180   0.34960  -1.26900     3     1     5     7
 C     2.15290  -1.19990  -1.58190     4     5    15     2
 C     2.59610   0.02680  -2.03140     5     3     4    10
 C     2.01070   1.81400  -0.98500     6     8     7    10
 C     3.23100   1.38820  -0.50210     7     3     6    21
 C     1.01970   2.22030  -0.13390     8     6    11    19
 C     0.20060   0.72120  -2.19320     9    10    12    18
 C     1.57900   0.96180  -2.01710    10     5     6     9
 C    -0.31030   2.23040  -0.45920    11     8    26    12
 C    -0.80860   1.57980  -1.62370    12    30    11     9
 C    -1.01400  -2.21640  -0.10650    13    14    16    38
 C     0.31650  -2.19880  -0.43510    14    13    33    15
 C     0.79530  -1.53370  -1.59810    15     4    14    18
 C    -2.01410  -1.81240  -0.95950    16    13    44    17
 C    -1.58480  -0.92180  -1.96000    17    29    16    18
 C    -0.21430  -0.67660  -2.16520    18    17    15     9
 C     1.11130   1.87150   1.21950    19    22    20     8
 C     2.21230   1.14590   1.60980    20    19    21    36
 C     3.35840   1.04580   0.83140    21    31     7    20
 C    -0.18240   1.65950   1.63100    22    19    26    23
 C    -0.52860   0.45310   2.31100    23    24    22    35
 C    -1.89100   0.09670   2.10810    24    27    37    23
 C    -2.40010   1.80860   0.63650    25    26    27    28
 C    -1.09040   2.14240   0.68920    26    25    11    22
 C    -2.88820   0.87130   1.51880    27    41    25    24
 C    -3.06180   1.56190  -0.55090    28    42    25    30
 C    -2.62280  -0.00450  -1.98120    29    43    30    17
 C    -2.16780   1.24040  -1.58560    30    29    12    28
 C     3.90830  -0.19940   0.92270    31    21     1    32
 C     2.93550  -0.89750   1.58980    32    31    34    36
 C     1.09670  -2.12990   0.71810    33    34    39    14
 C     2.40970  -1.79740   0.67360    34    33     2    32
 C     0.56180  -0.48970   2.33640    35    36    39    23
 C     1.92360  -0.11570   2.16010    36    32    20    35
 C    -2.20710  -1.19220   1.62910    37    38    40    24
 C    -1.10300  -1.91720   1.26260    38    37    39    13
 C     0.18720  -1.69980   1.68190    39    38    33    35
 C    -3.33840  -1.07990   0.82440    40    41    44    37
 C    -3.86570   0.18600   0.86970    41    27    42    40
 C    -4.06980   0.63070  -0.40990    42    43    41    28
 C    -3.73150  -0.37670  -1.25610    43    42    44    29
 C    -3.26480  -1.41730  -0.51790    44    43    16    40
