    44
C44-C2v-55                                                                      
 C     1.42110   2.18990  -1.10960     1     2     3    32
 C     2.62570   1.72650  -0.65880     2     1     7    27
 C     0.68580   1.46920  -2.05890     3     5     1     8
 C    -1.41910   2.20420  -1.10670     4    43     5    33
 C    -0.70000   1.46470  -2.06010     5     3     4    41
 C     3.57260  -0.13430   0.00700     6    10     7    29
 C     3.14920   0.53900  -1.09610     7     6     2     9
 C     1.14880   0.17320  -2.37830     8     9    16     3
 C     2.35560  -0.30370  -1.84500     9     7     8    13
 C     3.03550  -1.36400   0.00380    10     6    11    13
 C     2.33100  -1.52240   1.19510    11    12    10    20
 C     1.15190  -2.24150   1.19470    12    11    15    21
 C     2.33670  -1.55700  -1.20140    13    14    10     9
 C     1.15390  -2.26750  -1.21480    14    13    15    17
 C     0.65980  -2.71620  -0.00710    15    26    14    12
 C    -0.00520  -0.61810  -2.48000    16    17    41     8
 C    -0.01360  -1.89570  -1.90670    17    16    38    14
 C     1.16920   0.19190   2.38610    18    19    20    30
 C     0.01280  -0.59630   2.47620    19    23    21    18
 C     2.38560  -0.27320   1.85140    20    29    18    11
 C    -0.00540  -1.86410   1.88550    21    19    12    22
 C    -1.15570  -2.26200   1.18480    22    26    25    21
 C    -1.13650   0.19270   2.37720    23    19    24    31
 C    -2.33520  -0.29120   1.82760    24    36    23    25
 C    -2.33780  -1.54390   1.17870    25    22    40    24
 C    -0.67980  -2.73830  -0.01720    26    15    22    38
 C     2.67000   1.75560   0.71240    27    29     2    28
 C     1.44740   2.22060   1.13840    28    27    30    32
 C     3.20770   0.57280   1.11860    29    27     6    20
 C     0.70290   1.49530   2.08270    30    31    28    18
 C    -0.68730   1.49780   2.08090    31    30    34    23
 C     0.69970   2.62730   0.01300    32    33     1    28
 C    -0.68280   2.62440   0.01510    33    32    34     4
 C    -1.42600   2.21050   1.13000    34    35    31    33
 C    -2.61910   1.72970   0.67190    35    34    36    43
 C    -3.15480   0.53670   1.07850    36    37    35    24
 C    -3.59470  -0.14940  -0.00660    37    40    36    44
 C    -1.17780  -2.29100  -1.22330    38    26    39    17
 C    -2.35710  -1.56530  -1.20040    39    38    40    42
 C    -3.06770  -1.38640  -0.01260    40    37    39    25
 C    -1.16040   0.16850  -2.37680    41    16    42     5
 C    -2.37400  -0.29830  -1.83980    42    44    41    39
 C    -2.64480   1.73630  -0.69900    43    44    35     4
 C    -3.18970   0.55450  -1.10730    44    43    37    42
