    44
C44-C1-51                                                                       
 C    -2.55180  -0.49050  -1.61910     1    35     3     2
 C    -1.81840  -1.65160  -1.44070     2     1     6    10
 C    -1.90860   0.69180  -1.91600     3     1     4    38
 C    -0.57570   0.63670  -2.29610     4     3     9     5
 C     0.13460  -0.57370  -2.34820     5     4    15     6
 C    -0.47560  -1.78130  -1.86480     6     7     2     5
 C     0.38480  -2.61100  -1.13110     7    17    11     6
 C    -0.12530   2.65640  -1.09720     8    43     9    37
 C     0.32250   1.64980  -1.97570     9     4     8    41
 C    -2.25400  -2.12000  -0.15580    10    20    12     2
 C    -0.03870  -2.94210   0.15650    11    12    14     7
 C    -1.23050  -2.55830   0.67170    12    11    10    21
 C     2.08970  -2.39880   0.27700    13    14    25    17
 C     0.99120  -2.64690   0.99690    14    13    11    22
 C     1.50690  -0.27470  -2.16810    15    16     5    41
 C     2.35280  -1.20330  -1.55250    16    17    39    15
 C     1.73540  -2.31650  -1.03840    17    13    16     7
 C    -2.79480  -0.46280   1.37400    18    27    19    20
 C    -1.64240  -0.69100   2.08240    19    18    21    31
 C    -3.18490  -1.18820   0.27390    20    35    18    10
 C    -0.87580  -1.80190   1.82750    21    19    22    12
 C     0.51600  -1.77380   1.95820    22    14    21    23
 C     1.24330  -0.56570   2.22020    23    22    24    30
 C     2.51310  -0.44220   1.54180    24    32    25    23
 C     2.88790  -1.36520   0.56310    25    13    39    24
 C    -1.80670   1.48430   1.59050    26    27    28    31
 C    -2.90170   0.86370   1.06230    27    26    18    36
 C    -1.16170   2.45270   0.84650    28    29    26    37
 C     0.15800   2.64830   1.05170    29    28    43    34
 C     0.44070   0.64800   2.35700    30    34    31    23
 C    -0.98320   0.53600   2.27490    31    19    26    30
 C     2.91880   0.75800   1.00610    32    33    24    40
 C     2.18260   1.86080   1.16430    33    32    34    44
 C     0.98500   1.84840   1.82290    34    33    29    30
 C    -3.46820  -0.25360  -0.65780    35     1    20    36
 C    -3.32190   1.03270  -0.24360    36    35    27    38
 C    -1.41900   2.53880  -0.54980    37    38     8    28
 C    -2.40750   1.69900  -1.05460    38    37    36     3
 C     3.22490  -0.68770  -0.58990    39    40    25    16
 C     3.29490   0.63530  -0.32010    40    39    42    32
 C     1.62790   1.11710  -1.91740    41     9    42    15
 C     2.58530   1.61190  -0.99600    42    44    40    41
 C     0.79470   2.95150  -0.11890    43    44    29     8
 C     2.05380   2.48150  -0.06500    44    43    42    33
