    44
C44-C1-30                                                                       
 C    -0.76030  -2.64100   0.45190     1     2     3    35
 C     0.46720  -2.82970  -0.08430     2     1    25     7
 C    -1.84180  -2.26530  -0.29610     3     1     4     9
 C    -2.90540  -1.54770   0.19420     4    43     3    36
 C     2.08370  -1.91800  -1.17980     5     6     7    27
 C     2.51260  -0.75270  -1.66290     6     5    10    18
 C     0.77750  -2.30930  -1.33640     7     5     2     8
 C    -0.20190  -1.52450  -1.99710     8     9     7    17
 C    -1.53220  -1.65730  -1.55360     9    19     8     3
 C     3.29450  -0.12520  -0.71670    10    11     6    22
 C     2.98690   1.19580  -0.80460    11    10    23    12
 C     2.03210   1.32790  -1.79750    12    13    18    11
 C     1.11970   2.22650  -1.44260    13    12    14    24
 C    -0.21440   2.07830  -1.63050    14    13    40    16
 C    -2.06890   0.59960  -1.87110    15    19    16    42
 C    -0.73660   0.88230  -2.21940    16    15    14    17
 C     0.23490  -0.19620  -2.43600    17    18     8    16
 C     1.62550   0.10480  -2.27800    18    12     6    17
 C    -2.50710  -0.70180  -1.67370    19    43     9    15
 C     2.58240  -0.18020   1.53360    20    22    28    21
 C     2.30860   1.22000   1.44330    21    32    23    20
 C     3.16690  -0.87810   0.44710    22    27    10    20
 C     2.52250   1.93970   0.26190    23    11    24    21
 C     1.40760   2.65350  -0.18070    24    13    30    23
 C     1.48370  -2.58190   0.78360    25    27     2    26
 C     0.88930  -1.94990   1.84180    26    25    28    35
 C     2.53910  -2.06740   0.11000    27    25     5    22
 C     1.47540  -0.74770   2.23340    28    29    26    20
 C     0.61970   0.26170   2.54690    29    32    28    33
 C     0.19720   2.81960   0.45370    30    24    31    40
 C     0.03990   2.20340   1.68690    31    32    30    37
 C     1.10570   1.42930   2.08740    32    29    31    21
 C    -0.75330   0.23430   2.47320    33    29    34    37
 C    -1.41080  -0.94480   2.05570    34    36    33    35
 C    -0.52370  -1.99870   1.69550    35     1    26    34
 C    -2.60320  -0.76040   1.32370    36    39     4    34
 C    -1.13810   1.50740   1.97840    37    38    31    33
 C    -2.24110   1.57760   1.15290    38    37    39    41
 C    -3.09680   0.50810   0.97440    39    44    38    36
 C    -0.84460   2.61510  -0.47700    40    41    30    14
 C    -2.08950   2.13880  -0.13120    41    42    40    38
 C    -2.84580   1.33440  -0.95160    42    44    41    15
 C    -3.49700  -0.75290  -0.73330    43    44     4    19
 C    -3.66190   0.47470  -0.27210    44    43    42    39
