    44
C44-C2-68                                                                       
 C     2.74060   0.67870  -1.09340     1     2     4    28
 C     2.45330  -0.55530  -1.62320     2     3     1     9
 C     1.35370  -0.74180  -2.42450     3     6     2    27
 C     3.09700   0.77420   0.25400     4    33     1     7
 C     1.37750  -2.45750  -1.10070     5     6     9    13
 C     0.72410  -1.91370  -2.15640     6     5     3    12
 C     2.78850  -0.25740   1.14410     7     8     4    42
 C     2.46160  -1.50430   0.61240     8     9     7    18
 C     2.41580  -1.64760  -0.75420     9     5     8     2
 C    -1.94570   0.28400  -2.10900    10    19    11    17
 C    -0.83910  -0.40240  -2.57610    11    10    12    27
 C    -0.62660  -1.74020  -2.18030    12     6    15    11
 C     0.69490  -2.85690   0.01780    13     5    14    18
 C    -0.71190  -2.86340  -0.03380    14    41    13    15
 C    -1.40050  -2.25980  -1.13290    15    12    16    14
 C    -2.47820  -1.51430  -0.61880    16    24    17    15
 C    -2.81490  -0.26430  -1.13260    17    16    23    10
 C     1.37810  -2.25060   1.12480    18    44     8    13
 C    -1.77810   1.61500  -1.79420    19    20    10    25
 C    -2.52320   1.87580  -0.71570    20    32    23    19
 C    -2.45110  -0.55220   1.60590    21    22    39    24
 C    -2.75360   0.68240   1.09080    22    21    23    35
 C    -3.11460   0.77620  -0.24790    23    20    22    17
 C    -2.40830  -1.66220   0.75390    24    41    16    21
 C    -0.53140   2.20560  -1.67160    25    19    26    29
 C     0.64070   1.55640  -2.12740    26    25    28    27
 C     0.42660   0.25200  -2.65790    27     3    26    11
 C     1.82450   1.74730  -1.36040    28    31    26     1
 C    -0.56280   2.83180  -0.37960    29    30    32    25
 C     0.57570   2.83280   0.36930    30    29    31    38
 C     1.78550   2.48270  -0.17910    31    33    30    28
 C    -1.76940   2.48140   0.19010    32    20    29    35
 C     2.53830   1.88620   0.73480    33    31    34     4
 C     1.79560   1.64460   1.81600    34    33    42    38
 C    -1.82790   1.74600   1.37170    35    32    37    22
 C    -0.41130   0.25320   2.64130    36    39    43    37
 C    -0.63000   1.56560   2.12270    37    38    35    36
 C     0.53880   2.22470   1.67240    38    34    37    30
 C    -1.34520  -0.73450   2.39970    39    40    21    36
 C    -0.73170  -1.92000   2.13960    40    41    39    44
 C    -1.38250  -2.48310   1.09860    41    40    24    14
 C     1.95150   0.30800   2.14280    42    43    34     7
 C     0.85440  -0.40010   2.58980    43    42    44    36
 C     0.61990  -1.72120   2.18010    44    40    43    18
