    44
C44-D2-24                                                                       
 C    -0.85870   2.14860   1.36440     1     2    27     4
 C    -2.00950   1.43350   1.55350     2     1     3    12
 C    -3.02700   1.44290   0.59210     3     7     2    19
 C     0.41180   1.73920   1.78050     4     1    35     5
 C     0.58850   0.41130   2.29180     5     6     4    11
 C     1.86980  -0.14280   2.01380     6    36    13     5
 C    -3.67480   0.25430   0.60460     7    16     3     8
 C    -2.92290  -0.54920   1.41020     8     7    10    12
 C    -1.39450  -2.25970   0.93960     9    10    26    15
 C    -2.61200  -1.69070   0.70120    10     9     8    17
 C    -0.59960  -0.41960   2.31150    11    12    15     5
 C    -1.88680   0.12810   2.05020    12     8     2    11
 C     2.01740  -1.47060   1.57230    13    14    44     6
 C     0.85780  -2.17360   1.39770    14    13    43    15
 C    -0.40640  -1.74670   1.81270    15    14     9    11
 C    -3.68400  -0.26370  -0.63390    16     7    17    18
 C    -3.04000  -1.45850  -0.61660    17    16    22    10
 C    -2.93710   0.55670  -1.42210    18    16    19    23
 C    -2.61530   1.70730  -0.72120    19    20    18     3
 C    -1.39960   2.28540  -0.91400    20    19    27    25
 C    -0.85680  -2.13790  -1.36500    21    22    26    31
 C    -2.01720  -1.44250  -1.56300    22    21    17    23
 C    -1.89220  -0.12850  -2.04780    23    18    22    24
 C    -0.59640   0.40720  -2.29860    24    23    25    32
 C    -0.41070   1.72460  -1.76460    25    29    20    24
 C    -0.64120  -2.70420  -0.11910    26    43     9    21
 C    -0.64860   2.75450   0.13360    27    30    20     1
 C     2.00020   1.43630  -1.53940    28    29    37    33
 C     0.85030   2.15310  -1.33750    29    28    30    25
 C     0.65520   2.76890  -0.11440    30    27    35    29
 C     0.41750  -1.73420  -1.78000    31    21    40    32
 C     0.59910  -0.41050  -2.29840    32    33    31    24
 C     1.89160   0.12270  -2.03150    33    42    28    32
 C     2.59910   1.71100   0.70000    34    35    36    37
 C     1.39980   2.30820   0.93840    35    34    30     4
 C     2.90160   0.54540   1.37160    36    38    34     6
 C     3.04680   1.45140  -0.60820    37    39    28    34
 C     3.66920  -0.26060   0.59420    38    39    44    36
 C     3.69310   0.26360  -0.64640    39    38    37    42
 C     1.40060  -2.28690  -0.91850    40    41    43    31
 C     2.62130  -1.71160  -0.71160    41    40    42    44
 C     2.94670  -0.57180  -1.42230    42    39    41    33
 C     0.65820  -2.72900   0.14060    43    26    40    14
 C     3.03400  -1.45930   0.60260    44    38    41    13
