    44
C44-C1-10                                                                       
 C    -1.80346   1.61975  -1.61135     1    37     3     2
 C    -2.65741   1.51259  -0.48180     2    32    10     1
 C    -0.59583   2.35211  -1.46353     3     4    11     1
 C     0.47088   1.73372  -2.16800     4    41     3     6
 C     1.58964  -0.46321  -2.38097     5    38    44     6
 C     0.44979   0.36645  -2.55105     6    36     5     4
 C    -2.75869   0.54845   1.55690     7    31    16    10
 C    -0.14806   1.29680   2.04713     8    15    12     9
 C     1.22688   1.64599   2.11297     9    18    14     8
 C    -2.12950   1.59624   0.83382    10    12     2     7
 C    -0.29401   2.69741  -0.11957    11    12    13     3
 C    -0.80215   2.05628   1.04111    12    11    10     8
 C     1.09548   2.98992  -0.10478    13    14    41    11
 C     1.68541   2.53319   1.10344    14    13    21     9
 C    -0.51735  -0.03535   2.37207    15    16     8    20
 C    -1.88854  -0.36594   2.20749    16    17     7    15
 C    -2.34429  -1.52465   1.52474    17    23    16    27
 C     2.04485   0.52671   2.42058    18    22     9    19
 C     1.67445  -0.83414   2.25502    19    28    20    18
 C     0.30154  -1.16427   2.10458    20    19    26    15
 C     2.64962   1.71691   0.45505    21    14    22    42
 C     2.94240   0.63379   1.32543    22    18    21    40
 C    -3.49327  -1.40493   0.69896    23    17    31    25
 C    -1.60898  -2.01259  -0.65688    24    35    25    27
 C    -2.89993  -1.42470  -0.59102    25    33    23    24
 C     0.00885  -2.14142   1.11663    26    27    30    20
 C    -1.35782  -2.16884   0.73202    27    26    17    24
 C     2.44950  -1.64287   1.38226    28    40    29    19
 C     2.20019  -2.45608   0.24517    29    39    28    30
 C     0.80361  -2.60210   0.03376    30    29    34    26
 C    -3.82687  -0.03013   0.82162    31     7    23    32
 C    -3.66527   0.51228  -0.48072    32     2    31    33
 C    -2.96339  -0.27928  -1.42794    33    32    37    25
 C     0.56664  -2.36818  -1.34667    34    38    30    35
 C    -0.65116  -1.70850  -1.66018    35    36    24    34
 C    -0.68303  -0.46446  -2.34414    36    37    35     6
 C    -1.86178   0.29395  -2.11664    37    36    33     1
 C     1.68912  -1.83691  -2.03530    38    39    34     5
 C     2.66256  -2.22649  -1.07767    39    29    38    43
 C     3.14527  -0.61846   0.68735    40    43    28    22
 C     1.42184   2.41101  -1.35968    41    13     4    42
 C     2.38051   1.46216  -0.91576    42    44    41    21
 C     2.99600  -0.89987  -0.69646    43    40    44    39
 C     2.49574   0.16767  -1.48798    44    43    42     5
