    44
C44-D3d-38                                                                      
 C    -3.96670  -0.00930   0.01590     1     6     2    22
 C    -3.49400  -1.25380   0.39310     2    33     8     1
 C     0.63620  -2.25660   0.72560     3     4    20    37
 C    -0.75880  -2.26080   0.72550     4     3     7    32
 C    -2.68870   0.29450   1.76300     5     8     6    10
 C    -3.44810   0.96620   0.84870     6     9     5     1
 C    -1.44120  -1.51250   1.71940     7     8    17     4
 C    -2.71680  -1.04410   1.50820     8     5     7     2
 C    -2.69980   1.83730   0.11830     9    21     6    13
 C    -1.41870   0.65940   2.15530    10     5    17    12
 C     0.63450   1.75940   1.58840    11    12    15    28
 C    -0.75670   1.76870   1.57590    12    11    13    10
 C    -1.42220   2.26580   0.42990    13     9    30    12
 C     2.68050   0.78080   1.61510    14    39    18    15
 C     1.40940   0.72320   2.14670    15    14    11    16
 C     0.73790  -0.50750   2.32210    16    17    15    20
 C    -0.64600  -0.51210   2.32680    17    16    10     7
 C     3.46860  -0.26340   1.22030    18    14    19    42
 C     2.69040  -1.39180   1.15520    19    44    18    20
 C     1.42300  -1.55360   1.65940    20    19     3    16
 C    -2.69940   1.42730  -1.17750    21     9    22    24
 C    -3.43940   0.27440  -1.23500    22    23    21     1
 C    -2.68670  -0.79780  -1.59580    23    22    33    27
 C    -1.42210   1.59760  -1.66490    24    21    30    26
 C     0.63620   0.50760  -2.29180    25    26    34    31
 C    -0.75500   0.51130  -2.28990    26    25    27    24
 C    -1.41260  -0.73150  -2.11580    27    23    36    26
 C     1.41540   2.23210   0.50780    28    39    29    11
 C     0.75000   2.29460  -0.73880    29    30    31    28
 C    -0.63770   2.31840  -0.74130    30    29    24    13
 C     1.42840   1.51940  -1.70660    31    41    25    29
 C    -1.44300  -2.25610  -0.52120    32    33    36     4
 C    -2.72440  -1.75530  -0.62340    33    23     2    32
 C     1.41470  -0.65870  -2.14510    34    38    25    35
 C     0.74510  -1.77330  -1.58520    35    36    34    37
 C    -0.63990  -1.78590  -1.58920    36    35    27    32
 C     1.43550  -2.24910  -0.44320    37    44     3    35
 C     2.69660  -0.30880  -1.76290    38    41    43    34
 C     2.69060   1.70610   0.61290    39    14    40    28
 C     3.49100   1.21870  -0.38860    40    41    39    42
 C     2.69870   1.03250  -1.48610    41    40    38    31
 C     4.01930  -0.00760  -0.02210    42    18    43    40
 C     3.49460  -0.97170  -0.86350    43    44    38    42
 C     2.71990  -1.83210  -0.14270    44    43    19    37
