    44
C44-C2-4                                                                        
 C    -1.54930  -1.88460  -1.24280     1     2     4    30
 C    -2.36720  -0.86950  -1.68620     2     1     3    12
 C    -3.50670  -0.47520  -0.99450     3     7    29     2
 C    -0.18380  -1.95630  -1.54120     4    38     1     5
 C     0.54100  -0.88510  -2.10580     5     4     6    11
 C     1.92820  -0.82250  -1.84270     6    13     5    39
 C    -3.58090   0.89080  -1.02010     7    14     8     3
 C    -2.38510   1.29620  -1.53520     8     7    12    19
 C     1.82650   1.44020  -1.48790     9    13    10    20
 C     0.44380   1.47520  -1.61850    10     9    18    11
 C    -0.23700   0.32290  -2.18040    11    12     5    10
 C    -1.63340   0.27360  -2.06490    12     8    11     2
 C     2.62410   0.35860  -1.80080    13    44     6     9
 C    -3.71590   1.41900   0.21430    14     7    21    15
 C    -2.53430   2.08340   0.45660    15    14    19    26
 C     1.70500   2.07400   0.66510    16    27    17    20
 C     0.32610   2.16520   0.64390    17    16    18    25
 C    -0.34030   2.19090  -0.63870    18    19    10    17
 C    -1.71710   2.12760  -0.66210    19     8    18    15
 C     2.53460   2.03240  -0.44810    20    43    16     9
 C    -3.71660   0.33450   1.03420    21    22    14    29
 C    -2.61180   0.38250   1.81400    22    21    33    26
 C     1.62290   0.27990   2.05100    23    27    34    24
 C     0.22050   0.32820   2.17750    24    23    32    25
 C    -0.46500   1.49860   1.65380    25    26    17    24
 C    -1.84860   1.49560   1.52500    26    22    25    15
 C     2.40440   1.30780   1.56440    27    42    16    23
 C    -2.59700  -1.60420   0.88470    28    30    29    33
 C    -3.61920  -0.84880   0.33740    29    21    28     3
 C    -1.71190  -2.30940   0.09490    30    31    28     1
 C    -0.44890  -2.58200   0.47610    31    38    30    36
 C    -0.54730  -0.89260   2.10430    32    33    36    24
 C    -1.93330  -0.81200   1.86280    33    22    32    28
 C     2.33690  -0.86740   1.66110    34    35    41    23
 C     1.54170  -1.89470   1.22370    35    34    36    37
 C     0.18510  -1.95430   1.52630    36    31    35    32
 C     1.72800  -2.33730  -0.10740    37    38    39    35
 C     0.46320  -2.60400  -0.50650    38    31    37     4
 C     2.61220  -1.62320  -0.88500    39    37    40     6
 C     3.60980  -0.82570  -0.34280    40    44    39    41
 C     3.47250  -0.42880   0.98400    41    42    40    34
 C     3.60040   0.93190   1.03390    42    43    27    41
 C     3.75940   1.41980  -0.22540    43    44    42    20
 C     3.76250   0.35090  -1.04880    44    43    13    40
