    44
C44-C1-60                                                                       
 C     2.55310   1.80380   1.00460     1     4    29     2
 C     2.29690   2.19180  -0.25750     2     1    31     7
 C     0.52260   2.63100   1.03840     3     4     5     7
 C     1.46600   1.94790   1.75540     4     1     3    13
 C    -0.80730   2.34140   1.22180     5     3     8    11
 C     0.16350   2.52270  -1.30950     6    10     7     9
 C     1.03520   2.79690  -0.27260     7     6     2     3
 C    -1.74460   2.37080   0.16840     8    21     9     5
 C    -1.21670   2.32750  -1.12770     9     8     6    41
 C     0.55690   1.54470  -2.19160    10    44     6    32
 C    -1.18470   1.25850   2.05270    11    16     5    12
 C    -0.19250   0.31020   2.48140    12    13    11    19
 C     1.15690   0.72480   2.33510    13     4    14    12
 C     2.18410  -0.15660   1.92380    14    15    29    13
 C     1.86700  -1.46040   1.66600    15    14    22    20
 C    -2.41210   0.85600   1.62710    16    17    11    21
 C    -2.77740  -0.43440   1.52340    17    16    40    18
 C    -1.80500  -1.39110   1.70300    18    17    24    19
 C    -0.51330  -1.09540   2.25380    19    20    18    12
 C     0.54960  -1.93670   1.84090    20    26    15    19
 C    -2.78060   1.52560   0.47900    21     8    43    16
 C     2.37580  -2.04200   0.49670    22    23    27    15
 C     1.42980  -2.86640   0.05820    23    22    34    26
 C    -1.89590  -2.19340   0.51970    24    25    39    18
 C    -0.77510  -2.79900   0.04790    25    24    26    35
 C     0.34380  -2.87160   0.83050    26    23    25    20
 C     2.79680  -1.22860  -0.55430    27    28    22    30
 C     3.13190   0.08820  -0.27950    28    27    29    31
 C     3.00440   0.54770   1.02670    29     1    28    14
 C     1.89610  -1.54630  -1.61870    30    33    34    27
 C     2.62720   1.12920  -1.10240    31    32     2    28
 C     1.70970   0.79590  -2.09090    32    10    31    33
 C     1.30240  -0.52300  -2.33500    33    30    32    38
 C     1.06800  -2.56810  -1.18790    34    23    30    35
 C    -0.31770  -2.51200  -1.27130    35    34    37    25
 C    -2.22620  -1.02780  -1.51770    36    39    37    42
 C    -0.97020  -1.49540  -2.00400    37    35    38    36
 C    -0.10330  -0.52090  -2.55950    38    44    37    33
 C    -2.75950  -1.51590  -0.31270    39    40    24    36
 C    -3.41130  -0.53910   0.32280    40    39    43    17
 C    -1.65900   1.25330  -1.95520    41    44    42     9
 C    -2.62930   0.35490  -1.52910    42    43    41    36
 C    -3.35250   0.61120  -0.37890    43    40    21    42
 C    -0.50500   0.79190  -2.51830    44    10    41    38
