    44
C44-D2-83                                                                       
 C    -2.43000  -1.86360  -0.50320     1     2    22     4
 C    -1.32330  -2.66810  -0.43110     2     1     3    19
 C    -0.30510  -2.49420  -1.33560     3     9     2     7
 C    -2.54440  -0.79920  -1.39510     4     1    33     6
 C    -1.05960   0.91130  -2.23450     5     8     6    13
 C    -1.39790  -0.47070  -2.19100     6     7     5     4
 C    -0.29400  -1.35240  -2.17960     7     6    15     3
 C    -1.83720   1.83760  -1.54320     8    32    44     5
 C     0.97970  -2.67040  -0.90160     9    10     3    17
 C     1.81800  -1.83020  -1.54960    10    12     9    15
 C     3.18620  -0.18980  -0.64280    11    12    38    16
 C     2.80480  -1.46620  -0.71700    12    11    10    20
 C     0.29300   1.35900  -2.14920    13    14    41     5
 C     1.39840   0.46510  -2.17920    14    13    15    16
 C     1.05190  -0.91200  -2.25410    15    10     7    14
 C     2.53970   0.80720  -1.37870    16    43    11    14
 C     1.35600  -2.70170   0.44820    17    20    18     9
 C     0.31130  -2.52030   1.32940    18    19    17    30
 C    -0.98660  -2.68270   0.92250    19    21    18     2
 C     2.46570  -1.90470   0.53810    20    17    12    28
 C    -1.84350  -1.86160   1.56320    21    22    19    24
 C    -2.84140  -1.46690   0.74900    22    23    21     1
 C    -3.22050  -0.19380   0.64910    23    22    33    27
 C    -1.05380  -0.93040   2.23150    24    21    26    30
 C    -0.29930   1.34130   2.13070    25    26    34    31
 C    -1.40220   0.44860   2.15960    26    25    24    27
 C    -2.55330   0.80450   1.37730    27    36    23    26
 C     2.56630  -0.81560   1.40010    28    20    38    29
 C     1.40250  -0.46820   2.17260    29    30    31    28
 C     0.30250  -1.36340   2.15710    30    29    18    24
 C     1.05900   0.91350   2.21810    31    40    29    25
 C    -2.83870   1.46970  -0.71980    32    33     8    36
 C    -3.22350   0.19340  -0.67110    33    32    23     4
 C    -0.30500   2.50560   1.30820    34    37    35    25
 C    -1.35140   2.69460   0.43180    35    36    34    44
 C    -2.46220   1.90200   0.52950    36    35    32    27
 C     0.99190   2.66280   0.90740    37    40    34    42
 C     3.22840   0.19390   0.67340    38    39    11    28
 C     2.85180   1.47570   0.74620    39    38    40    43
 C     1.84740   1.84550   1.55340    40    39    37    31
 C     0.29660   2.52500  -1.32690    41    44    42    13
 C     1.35070   2.68560  -0.45100    42    43    41    37
 C     2.45960   1.89470  -0.52110    43    42    16    39
 C    -0.99040   2.69140  -0.91810    44     8    41    35
