    44
C44-C2-76                                                                       
 C     0.48190  -2.78590  -1.10720     1     2    32     6
 C     1.50520  -2.82800  -0.24390     2     3     1    14
 C     2.50070  -1.95770  -0.36200     3     2     8     4
 C     2.50270  -0.95450  -1.33480     4    10     3     5
 C     1.31770  -0.72000  -2.12230     5     6     4    12
 C     0.31180  -1.73930  -2.00290     6     1    34     5
 C     3.05490  -0.12960   0.66430     7     8    10    27
 C     2.68540  -1.38710   0.87050     8     7     3    19
 C     2.67630   1.37700  -0.83770     9    10    39    13
 C     3.05960   0.12140  -0.68810    10     9     4     7
 C    -0.56520   0.88190  -2.29430    11    35    42    12
 C     0.85870   0.66130  -2.26510    12    13    11     5
 C     1.61260   1.71920  -1.65600    13     9    44    12
 C     0.98310  -2.75770   1.02250    14    15     2    19
 C    -0.37760  -2.87660   0.94450    15    14    16    32
 C    -1.16060  -2.00870   1.65800    16    15    20    17
 C    -0.55140  -0.88600   2.30770    17    24    16    18
 C     0.87110  -0.67580   2.28760    18    19    17    28
 C     1.63590  -1.72850   1.69810    19     8    14    18
 C    -2.34410  -1.54450   1.13650    20    21    16    30
 C    -2.59630  -0.28520   1.54350    21    20    22    24
 C    -3.17810   0.40980   0.53520    22    21    33    25
 C    -1.04960   1.44970   1.99120    23    24    29    26
 C    -1.48440   0.16380   2.22020    24    23    21    17
 C    -2.68190   1.65720   0.20580    25    22    26    37
 C    -1.69330   2.24110   0.99700    26    38    25    23
 C     2.50440   0.94400   1.32730    27     7    39    28
 C     1.32000   0.70990   2.12210    28    29    27    18
 C     0.32290   1.73560   1.98830    29    41    23    28
 C    -2.69380  -1.68460  -0.21790    30    33    31    20
 C    -1.70220  -2.25390  -1.00980    31    32    30    34
 C    -0.68210  -2.95610  -0.42680    32     1    31    15
 C    -3.19170  -0.43520  -0.55050    33    36    22    30
 C    -1.05970  -1.45860  -2.00520    34    35     6    31
 C    -1.50340  -0.16670  -2.20700    35    36    34    11
 C    -2.61220   0.29850  -1.54030    36    37    33    35
 C    -2.36170   1.56850  -1.15150    37    36    42    25
 C    -0.67940   2.95040   0.41690    38    41    26    43
 C     2.51580   1.98210   0.38430    39    40     9    27
 C     1.52650   2.85660   0.24640    40    39    41    44
 C     0.49100   2.79310   1.09730    41    40    38    29
 C    -1.17040   2.02840  -1.67180    42    43    37    11
 C    -0.37710   2.89310  -0.95330    43    44    42    38
 C     0.97640   2.77940  -1.01420    44    43    40    13
