    44
C44-C1-69                                                                       
 C     0.31580  -0.61630  -2.54680     1    29     5     2
 C    -0.52800   0.52700  -2.53150     2     4     1     3
 C     0.09370   1.72610  -2.08420     3    12     2    21
 C    -1.86740   0.30790  -2.11220     4     7     2    10
 C    -0.06900  -1.87120  -2.00670     5     6    33     1
 C    -1.36790  -1.98480  -1.56310     6     7     5     9
 C    -2.27580  -0.97030  -1.74770     7    14     6     4
 C    -0.50980  -2.76530   0.52620     8    44     9    34
 C    -1.62260  -2.48970  -0.25990     9     8    43     6
 C    -2.53750   1.18630  -1.20770    10    11    13     4
 C    -1.84980   2.26880  -0.73080    11    10    12    19
 C    -0.59560   2.55750  -1.22600    12    16    11     3
 C    -3.18970   0.35520  -0.28890    13    14    10    17
 C    -3.09740  -0.91310  -0.70010    14     7    43    13
 C    -0.41610   2.82760   0.90460    15    16    19    23
 C     0.25950   2.99660  -0.26550    16    12    22    15
 C    -2.83710   0.35990   1.06880    17    18    13    40
 C    -2.04210   1.41090   1.52780    18    19    17    28
 C    -1.68620   2.41020   0.64210    19    15    18    11
 C     2.26840   0.65700  -1.82500    20    29    27    21
 C     1.45710   1.77370  -1.67300    21    20    22     3
 C     1.51940   2.52800  -0.46820    22    16    25    21
 C     0.11330   2.06500   1.91110    23    15    24    28
 C     1.44740   1.64840   1.77440    24    38    23    25
 C     2.21380   1.94460   0.60570    25    26    22    24
 C     3.01920   0.85780   0.36830    26    27    39    25
 C     3.13680   0.23300  -0.83440    27    26    30    20
 C    -0.90080   1.17440   2.32600    28    42    23    18
 C     1.65210  -0.49700  -2.25000    29    31     1    20
 C     3.01010  -1.12330  -0.63460    30    31    27    32
 C     2.10760  -1.57950  -1.55650    31    29    30    33
 C     2.73990  -1.37880   0.69710    32    30    35    39
 C     1.03100  -2.38510  -1.29460    33    31    34     5
 C     0.81310  -2.75530   0.04230    34    33     8    35
 C     1.66440  -2.19820   1.03850    35    36    32    34
 C     0.79760  -1.78650   2.03150    36    44    35    37
 C     0.79090  -0.52210   2.59240    37    36    38    42
 C     1.78950   0.34600   2.17260    38    39    37    24
 C     2.75090  -0.11230   1.29900    39    26    38    32
 C    -2.51060  -0.97390   1.42070    40    41    43    17
 C    -1.37050  -1.20020   2.18040    41    44    40    42
 C    -0.56690  -0.14220   2.65250    42    28    41    37
 C    -2.68090  -1.73860   0.26270    43    14    40     9
 C    -0.47130  -2.15640   1.76580    44    36    41     8
