    44
C44-C2-12                                                                       
 C    -3.06320  -1.40550  -0.70750     1     2    28     4
 C    -3.61120  -0.17110  -0.66070     2     1     3    21
 C    -3.03400   0.83250  -1.37720     3    11     2     9
 C    -1.84920  -1.59810  -1.36960     4     1    31     8
 C     2.20020  -1.71830  -1.07980     5    17     6    39
 C     0.92290  -1.73580  -1.49960     6     5    30     7
 C     0.30210  -0.61210  -2.11730     7     6     8    19
 C    -1.13400  -0.56430  -2.06680     8     9     4     7
 C    -1.78860   0.68580  -1.99890     9     3    15     8
 C    -1.72780   2.44390  -0.68130    10    11    23    15
 C    -2.92390   1.87720  -0.52990    11    10     3    20
 C     2.29360   2.17500  -0.19420    12    16    13    40
 C     1.01910   2.46710  -0.56190    13    12    22    14
 C     0.41250   1.76050  -1.64840    14    15    13    19
 C    -0.98260   1.78880  -1.67130    15    14    10     9
 C     3.20370   1.37240  -0.78300    16    12    43    18
 C     3.07710  -0.73120  -1.23020    17     5    18    44
 C     2.52720   0.47270  -1.62380    18    17    16    19
 C     1.14940   0.58470  -2.03970    19    14    18     7
 C    -3.10520   1.43180   0.74540    20    21    11    27
 C    -3.65140   0.18890   0.68840    21    20    24     2
 C     0.21760   2.47910   0.59070    22    23    32    13
 C    -1.11380   2.44160   0.53870    23    22    10    27
 C    -3.05610  -0.83730   1.36000    24    28    21    25
 C    -1.78830  -0.67560   1.95270    25    24    36    26
 C    -1.14310   0.58710   2.04230    26    25    27    33
 C    -1.87930   1.63530   1.38790    27    20    23    26
 C    -2.93020  -1.91780   0.54440    28    29     1    24
 C    -1.74040  -2.48470   0.69870    29    28    31    36
 C     0.22230  -2.48240  -0.57290    30    31     6    37
 C    -1.10850  -2.43940  -0.52760    31    30    29     4
 C     0.94350   1.75810   1.51980    32    40    22    33
 C     0.29780   0.62290   2.09540    33    32    26    34
 C     1.13560  -0.58100   1.99950    34    35    42    33
 C     0.40960  -1.77070   1.62070    35    36    37    34
 C    -0.98460  -1.79420   1.64650    36    35    29    25
 C     1.04800  -2.50960   0.56920    37    39    30    35
 C     3.19210  -1.38140   0.79420    38    39    42    44
 C     2.31600  -2.21340   0.19230    39    38    37     5
 C     2.22280   1.73330   1.10000    40    41    32    12
 C     3.10170   0.74640   1.24730    41    40    42    43
 C     2.52710  -0.45730   1.60580    42    41    38    34
 C     3.94350   0.64660   0.14740    43    44    41    16
 C     3.92840  -0.64880  -0.14280    44    43    17    38
