    44
C44-C2-46                                                                       
 C     3.57230  -0.41300  -0.48110     1     2    17    32
 C     2.95180  -1.60450  -0.63640     2     1     6     3
 C     1.95840  -1.46410  -1.58840     3    11    38     2
 C    -1.85440   0.16570  -1.99160     4    39    12     5
 C    -0.58130  -0.41600  -2.21970     5     4    37    10
 C     2.26960  -2.23380   0.35140     6     7     2    15
 C     1.09300  -2.74700  -0.06770     7     6     9    11
 C    -1.20060  -2.59120   0.46970     8     9    21    14
 C     0.10210  -2.62690   0.84620     9     7     8    18
 C    -0.44040  -1.77590  -1.68410    10    11    14     5
 C     0.83640  -2.19500  -1.33010    11     3    10     7
 C    -2.91900  -0.42740  -1.34840    12    13     4    41
 C    -2.74060  -1.62940  -0.76930    13    12    44    14
 C    -1.51850  -2.23300  -0.86800    14    13     8    10
 C     1.95190  -1.46680   1.47740    15    16     6    18
 C     2.55400  -0.21940   1.62500    16    15    17    27
 C     3.52890   0.26240   0.72180    17    22     1    16
 C     0.59750  -1.68370   1.77240    18    15     9    19
 C    -0.28350  -0.65800   2.21230    19    18    20    26
 C    -1.66550  -0.84960   1.92400    20    21    28    19
 C    -2.16450  -1.95170   1.21780    21    44     8    20
 C     3.18480   1.53630   0.46340    22    23    17    31
 C     2.13730   1.91050   1.21720    23    22    25    27
 C    -0.09570   2.59570   0.82800    24    25    36    30
 C     1.20690   2.57120   0.45300    25    24    23    33
 C     0.28240   0.65780   2.22210    26    27    30    19
 C     1.66750   0.83190   1.96210    27    23    16    26
 C    -2.55060   0.21290   1.59600    28    29    43    20
 C    -1.95210   1.46590   1.46280    29    28    30    42
 C    -0.60170   1.67040   1.76230    30    29    24    26
 C     2.76850   1.66760  -0.82000    31    32    22    33
 C     2.94420   0.44890  -1.38520    32    31    38     1
 C     1.54100   2.27180  -0.89760    33    31    25    34
 C     0.46280   1.79080  -1.69760    34    35    33    37
 C    -0.82520   2.17770  -1.33070    35    39    34    36
 C    -1.10280   2.72150  -0.07090    36    24    42    35
 C     0.61580   0.43030  -2.23260    37    38     5    34
 C     1.88340  -0.16420  -2.02240    38     3    32    37
 C    -1.95900   1.46560  -1.57790    39    35     4    40
 C    -2.97570   1.63020  -0.64880    40    42    41    39
 C    -3.59230   0.43010  -0.48480    41    40    43    12
 C    -2.30070   2.24320   0.34950    42    40    36    29
 C    -3.56310  -0.26130   0.72130    43    44    41    28
 C    -3.22500  -1.54460   0.50030    44    21    43    13
