    44
C44-Cs-11                                                                       
 C    -3.68780  -0.00570   0.82350     1     3     2    21
 C    -3.02520   1.09420   1.25830     2     1    30    13
 C    -3.01480  -1.09370   1.25000     3     1     4     6
 C    -2.86760  -1.93300   0.19040     4     5     3    20
 C    -1.69040  -2.53150   0.03320     5     4    18     8
 C    -1.83320  -0.69760   1.89650     6     3    13     7
 C    -0.60220  -1.40130   1.79440     7     6    15     8
 C    -0.58990  -2.48990   0.84940     8     5    10     7
 C     1.78990  -2.27750   0.48980     9    10    19    16
 C     0.55480  -2.61090   0.08340    10     9     8    17
 C    -0.60720   2.46440   0.84900    11    29    32    12
 C    -0.60460   1.39900   1.81490    12    13    14    11
 C    -1.83990   0.71290   1.91340    13     2     6    12
 C     0.64540   0.73420   2.00120    14    42    12    15
 C     0.64880  -0.73220   1.99450    15    16     7    14
 C     1.86330  -1.32470   1.52580    16    44     9    15
 C     0.14400  -2.15950  -1.18610    17    18    25    10
 C    -1.19790  -2.12620  -1.17270    18    17    23     5
 C     2.81080  -1.90040  -0.36790    19    41     9    24
 C    -3.16360  -1.16260  -0.93780    20    21     4    23
 C    -3.76190   0.00110  -0.54650    21    22    20     1
 C    -3.17030   1.16620  -0.91420    22    21    30    28
 C    -2.00130  -1.17140  -1.71680    23    18    20    27
 C     2.26920  -1.15660  -1.44410    24    36    25    19
 C     0.91770  -1.19040  -1.82710    25    17    24    26
 C     0.15800   0.00590  -2.18130    26    25    38    27
 C    -1.31550   0.00550  -2.12260    27    23    28    26
 C    -1.99740   1.17990  -1.69470    28    34    22    27
 C    -1.71200   2.54180   0.02670    29    30    34    11
 C    -2.88780   1.94720   0.19920    30    29     2    22
 C     1.78320   2.25750   0.47220    31    32    35    42
 C     0.54090   2.59120   0.07530    32    31    11    33
 C     0.13880   2.17520  -1.20650    33    34    38    32
 C    -1.19730   2.14990  -1.17670    34    33    28    29
 C     2.80530   1.89990  -0.38110    35    39    31    37
 C     3.00710   0.00470  -1.41800    36    37    24    40
 C     2.27030   1.16520  -1.46240    37    36    38    35
 C     0.92120   1.20750  -1.84400    38    33    37    26
 C     3.74790   1.11050   0.19300    39    35    40    43
 C     4.04230  -0.02330  -0.49540    40    41    39    36
 C     3.75730  -1.13180   0.23510    41    40    19    44
 C     1.85180   1.31810   1.51430    42    43    31    14
 C     3.04040   0.66600   1.29570    43    44    42    39
 C     3.05790  -0.67610   1.31930    44    43    41    16
