    44
C44-C2-32                                                                       
 C     3.28100   0.08710  -0.65770     1     2    27     3
 C     2.81780   1.33690  -0.90720     2     1     9     4
 C     2.71750  -1.01890  -1.26890     3     1    36     6
 C     1.75480   1.58170  -1.76090     4    11     2     5
 C     1.10930   0.48110  -2.32190     5     4     6    21
 C     1.58220  -0.82470  -2.08350     6     8     5     3
 C     0.37010  -2.62150  -0.99170     7    35     8    43
 C     0.43710  -1.63720  -1.99600     8    40     6     7
 C     2.58280   1.95400   0.29250     9    10     2    14
 C     1.43450   2.65680   0.12460    10     9    15    11
 C     0.93970   2.48710  -1.13470    11    10    23     4
 C     1.61610   0.82740   2.09840    12    13    14    28
 C     0.46560   1.64000   1.99030    13    17    15    12
 C     2.76510   1.02140   1.29470    14     9    27    12
 C     0.36950   2.60450   0.97400    15    10    16    13
 C    -0.81110   2.64900   0.22650    16    19    15    23
 C    -0.67460   0.88930   2.26770    17    18    13    30
 C    -1.92060   1.18590   1.73930    18    34    17    19
 C    -1.99000   2.09150   0.65840    19    16    20    18
 C    -2.93970   1.54830  -0.18060    20    38    19    24
 C    -0.30250   0.44680  -2.39050    21    40     5    22
 C    -1.15320   1.48520  -1.86460    22    24    23    21
 C    -0.42820   2.44780  -1.12450    23    11    22    16
 C    -2.42890   1.09680  -1.41860    24    42    22    20
 C     2.87200  -1.35100   0.95010    25    27    26    36
 C     1.77150  -1.56880   1.76070    26    29    25    28
 C     3.33710  -0.10130   0.71180    27    25     1    14
 C     1.11900  -0.47800   2.33760    28    26    30    12
 C     0.94730  -2.44050   1.09490    29    35    33    26
 C    -0.28440  -0.44950   2.40860    30    17    28    32
 C    -2.41620  -1.09040   1.42420    31    34    32    37
 C    -1.13540  -1.46780   1.86320    32    31    33    30
 C    -0.42130  -2.40690   1.08560    33    29    32    43
 C    -2.87250   0.22910   1.48300    34    38    18    31
 C     1.44840  -2.67270  -0.14690    35    36    29     7
 C     2.59140  -1.96570  -0.26540    36    35     3    25
 C    -2.92420  -1.54430   0.18800    37    39    44    31
 C    -3.63590   0.53200   0.39980    38    39    34    20
 C    -3.61990  -0.52310  -0.40570    39    38    42    37
 C    -0.70800  -0.89850  -2.27800    40    41     8    21
 C    -1.95110  -1.20610  -1.75120    41    42    40    44
 C    -2.87850  -0.22510  -1.50050    42    39    41    24
 C    -0.82550  -2.66850  -0.24900    43    44     7    33
 C    -2.00960  -2.11720  -0.67310    44    43    37    41
