    44
C44-C2-61                                                                       
 C     1.00220   2.49090   1.22270     1     9     2    15
 C     2.02730   1.56540   1.28190     2     1     3    14
 C     1.85210   0.33120   1.95840     3    33     2     7
 C     1.08000  -2.25670   1.36820     4    32     6    35
 C    -1.23200  -1.67040   1.74150     5    11    18     6
 C     0.13160  -1.43220   2.05530     6     5     4     7
 C     0.53350  -0.07170   2.37050     7     8     3     6
 C    -0.46920   0.92050   2.28100     8     9    19     7
 C    -0.20160   2.16540   1.77360     9    16     1     8
 C    -2.70780  -2.08340   0.14250    10    11    44    41
 C    -1.61520  -2.57660   0.74550    11    10    34     5
 C     2.24850   1.70060  -1.06000    12    13    14    23
 C     1.23880   2.62260  -1.03740    13    15    26    12
 C     2.83730   1.28360   0.14400    14    22    12     2
 C     0.67290   3.18360   0.06470    15    13    17     1
 C    -1.24530   2.65610   1.05030    16     9    17    39
 C    -0.70070   3.20640  -0.07500    17    16    15    36
 C    -2.20790  -0.64720   1.70340    18    19    41     5
 C    -1.79340   0.65560   1.90810    19    18     8    39
 C     3.14770  -0.93720  -0.71540    20    25    22    21
 C     2.21870  -0.64620  -1.71110    21    23    20    30
 C     3.27600   0.00220   0.27830    22    14    20    33
 C     1.79570   0.65020  -1.91360    23    21    27    12
 C     1.62060  -2.56950  -0.74400    24    25    35    30
 C     2.70910  -2.07990  -0.13990    25    24    32    20
 C     0.18570   2.15770  -1.77210    26    13    36    27
 C     0.47340   0.91300  -2.28450    27    26    23    28
 C    -0.53690  -0.07430  -2.36570    28    27    38    29
 C    -0.12680  -1.43760  -2.04750    29    30    31    28
 C     1.24160  -1.66890  -1.74970    30    24    21    29
 C    -1.08320  -2.25350  -1.36090    31    44    34    29
 C     2.37580  -1.83450   1.14540    32    33    25     4
 C     2.72230  -0.56310   1.40370    33    32     3    22
 C    -0.64930  -2.91350  -0.16690    34    35    11    31
 C     0.65650  -2.91280   0.16730    35    34    24     4
 C    -1.02360   2.52110  -1.23450    36    26    37    17
 C    -2.03200   1.58000  -1.29180    37    36    38    40
 C    -1.85230   0.33860  -1.95840    38    43    37    28
 C    -2.24570   1.71700   1.06650    39    16    40    19
 C    -2.82760   1.29070  -0.14230    40    42    39    37
 C    -3.14160  -0.93650   0.71790    41    10    42    18
 C    -3.26330   0.00650  -0.27290    42    40    41    43
 C    -2.71720  -0.55870  -1.40050    43    44    38    42
 C    -2.37640  -1.83290  -1.14370    44    43    10    31
