    44
C44-C2-74                                                                       
 C    -0.65540   0.19940   2.58650     1     2     3    35
 C    -1.63920  -0.68370   2.27000     2    28     1     8
 C     0.65530  -0.19120   2.57710     3     4     1     9
 C     1.63930   0.68750   2.26710     4     3    43    36
 C    -2.33190  -1.94520   0.66190     5     6    30     8
 C    -1.95090  -2.12450  -0.64730     6     7    12     5
 C    -0.65110  -2.45140  -0.91740     7     6    14    11
 C    -1.34590  -1.88900   1.64730     8     2     5    10
 C     1.02250  -1.43860   1.99940     9     3    18    10
 C    -0.00660  -2.25140   1.41390    10     8    11     9
 C     0.31210  -2.68330   0.10040    11    20    10     7
 C    -2.58770  -1.13980  -1.36130    12     6    21    16
 C     1.34730  -1.87330  -1.64170    13    17    20    14
 C     0.03130  -1.76670  -1.95780    14    13     7    15
 C    -0.49350  -0.55770  -2.51490    15    16    14    27
 C    -1.86250  -0.31610  -2.21530    16    23    12    15
 C     2.27480  -0.92840  -1.82550    17    13    26    41
 C     2.31880  -1.22580   1.43990    18    43    19     9
 C     2.59900  -1.76800   0.17810    19    20    18    41
 C     1.54740  -2.41560  -0.41640    20    13    11    19
 C    -3.41930  -0.42160  -0.51040    21    30    22    12
 C    -3.15140   0.89340  -0.78120    22    21    23    31
 C    -2.29450   0.93720  -1.86400    23    24    16    22
 C    -1.37040   1.87490  -1.65740    24    23    32    25
 C    -0.04860   1.77020  -1.95320    25    24    37    27
 C     1.83200   0.32320  -2.18220    26    17    40    27
 C     0.47170   0.55510  -2.50640    27    26    25    15
 C    -2.71150  -0.07620   1.69750    28    30     2    29
 C    -2.31930   1.23900   1.45280    29    28    31    35
 C    -3.23310  -0.89690   0.74950    30    28    21     5
 C    -2.59720   1.75630   0.18170    31    32    29    22
 C    -1.53990   2.39500  -0.41710    32    24    33    31
 C    -0.30020   2.66130   0.09770    33    32    37    34
 C     0.00120   2.24280   1.42530    34    36    33    35
 C    -1.03300   1.44730   2.01800    35    29     1    34
 C     1.35330   1.89110   1.63750    36     4    39    34
 C     0.65610   2.45160  -0.92840    37    38    25    33
 C     1.94840   2.12850  -0.62650    38    37    39    40
 C     2.35900   1.95100   0.67550    39    38    44    36
 C     2.58280   1.12800  -1.32800    40    38    42    26
 C     3.16400  -0.89270  -0.77750    41    42    17    19
 C     3.44370   0.41740  -0.50160    42    44    41    40
 C     2.71760   0.08310   1.69820    43     4    44    18
 C     3.26370   0.90540   0.75900    44    43    42    39
