    44
C44-C2v-13                                                                      
 C     2.86870  -0.01800   1.90580     1     2     5    28
 C     1.64730   0.00340   2.44060     2     1    34    15
 C    -2.55580   0.00670   1.73820     3    35    16     4
 C    -1.19980   0.00000   2.21640     4     3    14    33
 C     3.08100  -1.11130   1.16050     5     1     6     8
 C     3.64660  -0.69320  -0.00670     6     5     7    27
 C     3.05570  -1.07460  -1.18140     7    18     6    11
 C     1.86260  -1.79510   1.20680     8     5    10    15
 C    -0.12480  -2.38970   0.00190     9    10    13    20
 C     1.24920  -2.22710   0.00500    10     9    11     8
 C     1.84770  -1.77890  -1.19250    11     7    10    22
 C    -2.20610  -1.94260   0.65490    12    16    13    41
 C    -0.94240  -2.07600   1.10930    13    12    14     9
 C    -0.39790  -1.21040   2.06980    14    15    13     4
 C     0.98490  -1.16510   2.14050    15     2    14     8
 C    -3.14130  -1.06460   1.06080    16    12    44     3
 C     1.65470  -0.00940  -2.44280    17    18    19    22
 C     2.88640   0.01490  -1.94520    18    17     7    26
 C     0.97970   1.13470  -2.08750    19    17    24    29
 C    -0.95970  -2.11310  -1.11050    20    41    21     9
 C    -0.42040  -1.21330  -2.04770    21    22    20    23
 C     0.96550  -1.15860  -2.12340    22    17    21    11
 C    -1.22700  -0.00580  -2.19370    23    43    21    24
 C    -0.41030   1.19750  -2.01480    24    19    25    23
 C    -0.95530   2.11440  -1.10010    25    40    24    30
 C     3.10980   1.10380  -1.18410    26    18    27    29
 C     3.67840   0.71720   0.00300    27    28    26     6
 C     3.08290   1.10090   1.17530    28     1    27    32
 C     1.87860   1.78450  -1.18400    29    26    31    19
 C    -0.11130   2.39320   0.00310    30    31    37    25
 C     1.26370   2.22690   0.01230    31    30    32    29
 C     1.87010   1.79010   1.21440    32    28    31    34
 C    -0.40370   1.21800   2.05620    33    34    37     4
 C     0.98270   1.16400   2.13960    34     2    33    32
 C    -3.13880   1.07720   1.06510    35    36    38     3
 C    -2.21270   1.96860   0.65820    36    37    35    40
 C    -0.94780   2.09590   1.10550    37    36    33    30
 C    -3.90970   0.64820   0.00040    38    44    35    39
 C    -3.14860   1.09570  -1.07660    39    40    38    43
 C    -2.23630   2.00020  -0.69090    40    39    25    36
 C    -2.24650  -1.99420  -0.69560    41    12    42    20
 C    -3.18450  -1.11000  -1.11100    42    41    44    43
 C    -2.59350  -0.01310  -1.73160    43    42    39    23
 C    -3.92350  -0.69020  -0.02070    44    38    42    16
