    44
C44-C2-5                                                                        
 C    -1.42210   1.97800   1.07290     1     4     2    30
 C    -2.49210   1.82840   0.19360     2     3     1     5
 C    -3.52670   0.93290   0.40870     3    10     2    29
 C    -0.15720   2.38540   0.68180     4     1    37     7
 C    -2.14390   1.69680  -1.15320     5    11     6     2
 C    -0.81840   1.84550  -1.49670     6     5     7    23
 C     0.16630   2.38040  -0.67710     7     9     6     4
 C     2.51310   1.84080  -0.19680     8    44     9    36
 C     1.43210   1.98410  -1.07010     9     7     8    22
 C    -3.90940   0.30480  -0.75140    10    12    11     3
 C    -2.91780   0.66540  -1.62900    11    10     5    13
 C    -3.88140  -1.02690  -0.51140    12    15    10    14
 C    -2.16100  -0.45710  -1.95090    13    14    11    24
 C    -2.73860  -1.44620  -1.17630    14    13    20    12
 C    -3.56330  -1.24960   0.78420    15    12    16    29
 C    -2.37190  -1.89180   0.91400    16    15    32    20
 C     1.81930  -2.06020   0.36170    17    21    38    18
 C     0.44580  -2.11450   0.58130    18    17    19    31
 C    -0.45110  -2.11420  -0.56040    19    20    18    27
 C    -1.82310  -2.07280  -0.34790    20    14    16    19
 C     2.36040  -1.85880  -0.89700    21    42    26    17
 C     1.23270   0.99080  -2.04690    22    25    23     9
 C    -0.13960   0.84580  -2.20430    23    22     6    24
 C    -0.78570  -0.42050  -2.21740    24    13    23    27
 C     2.13480  -0.05680  -2.07460    25    22    43    26
 C     1.48480  -1.27690  -1.77240    26    21    27    25
 C     0.10010  -1.43610  -1.72020    27    26    24    19
 C    -2.11560  -0.06210   2.05230    28    30    29    32
 C    -3.32080  -0.03530   1.38310    29    15    28     3
 C    -1.21460   0.98110   2.03690    30    28    33     1
 C    -0.09920  -1.44470   1.75120    31    32    34    18
 C    -1.48880  -1.29850   1.78610    32    16    31    28
 C     0.14880   0.84530   2.20460    33    30    37    34
 C     0.78830  -0.42860   2.25550    34    39    33    31
 C     2.88650   0.64410   1.60910    35    40    36    39
 C     2.13930   1.70280   1.15240    36    37    35     8
 C     0.82600   1.85970   1.51140    37    36     4    33
 C     2.73450  -1.46500   1.22010    38    39    41    17
 C     2.15780  -0.48090   1.98760    39    38    35    34
 C     3.85160   0.30740   0.70490    40    41    35    44
 C     3.83600  -1.03760   0.50430    41    42    40    38
 C     3.56230  -1.22060  -0.80500    42    41    21    43
 C     3.36860  -0.01680  -1.43050    43    42    44    25
 C     3.55180   0.95510  -0.46540    44    40    43     8
