    44
C44-Cs-71                                                                       
 C     2.58430  -0.00540  -1.56240     1     2    27     6
 C     3.07410   0.77330  -0.58550     2     3     1    14
 C     2.51640   1.95070  -0.32980     3     2     8     4
 C     1.42000   2.45440  -1.02600     4    10     3     5
 C     0.72540   1.58760  -1.95290     5     6     4    12
 C     1.38980   0.33320  -2.19280     6     1    29     5
 C     1.08520   2.63180   1.15030     7     8    22    10
 C     2.21330   1.95430   1.00390     8     7     3    19
 C    -0.66860   3.09060  -0.09970     9    10    13    37
 C     0.65720   3.09380  -0.08460    10     9     4     7
 C    -1.38350   0.33080  -2.17910    11    42    30    12
 C    -0.73520   1.59710  -1.94830    12    11    13     5
 C    -1.45960   2.47430  -1.04410    13     9    44    12
 C     3.08470  -0.01020   0.54210    14    15     2    19
 C     2.82490  -1.31210   0.20960    15    14    16    27
 C     1.98470  -2.03560   1.01900    16    15    20    17
 C     1.20430  -1.33910   2.00590    17    24    18    16
 C     1.29080   0.06380   2.19420    18    17    19    23
 C     2.38590   0.69760   1.53030    19     8    14    18
 C     1.11850  -2.96220   0.43480    20    21    16    25
 C     0.00740  -2.99360   1.16600    21    34    20    24
 C    -0.00110   2.14010   1.82450    22    37     7    23
 C     0.00470   0.78960   2.32640    23    22    40    18
 C    -0.00020  -1.98870   2.03850    24    21    41    17
 C     0.71890  -2.83500  -0.89950    25    26    20    28
 C     1.41690  -1.90620  -1.65950    26    27    25    29
 C     2.53150  -1.29800  -1.16030    27     1    26    15
 C    -0.69570  -2.83040  -0.86800    28    31    34    25
 C     0.69250  -0.88110  -2.31550    29    30     6    26
 C    -0.67890  -0.87970  -2.29810    30    29    31    11
 C    -1.38470  -1.88780  -1.62000    31    32    28    30
 C    -2.49330  -1.27040  -1.11400    32    42    31    35
 C    -1.98650  -2.04940   1.03980    33    35    34    41
 C    -1.11960  -2.97260   0.46010    34    21    33    28
 C    -2.81270  -1.29860   0.24090    35    36    33    32
 C    -3.08280   0.01240   0.51370    36    35    43    39
 C    -1.07970   2.61480   1.12760    37    38    22     9
 C    -2.19690   1.94590   0.94800    38    37    39    44
 C    -2.34630   0.69180   1.49110    39    38    36    40
 C    -1.27000   0.05270   2.19020    40    41    39    23
 C    -1.20820  -1.34650   2.02240    41    24    40    33
 C    -2.59060   0.01660  -1.54960    42    43    32    11
 C    -3.14710   0.81340  -0.61530    43    44    42    36
 C    -2.59170   1.99340  -0.37170    44    43    38    13
