    44
C44-Cs-33                                                                       
 C     2.49690   1.35060  -1.18970     1     9     2    11
 C     2.86390   0.02690  -1.17780     2     1    18     3
 C     1.98690  -0.92590  -1.78400     3    25     2     7
 C    -0.21420  -2.45550  -1.08250     4    24    31     6
 C    -1.74540  -0.84050  -1.92740     5    10    14     6
 C    -0.44600  -1.39510  -2.01710     6     5     4     7
 C     0.69850  -0.55070  -2.30190     7     8     3     6
 C     0.43670   0.83660  -2.32290     8     9    15     7
 C     1.33660   1.72650  -1.80360     9    12     1     8
 C    -2.74870  -1.31480  -1.08050    10    44    30     5
 C     2.49530   2.08670  -0.00550    11    16    13     1
 C     0.69450   2.71230  -1.12880    12     9    13    39
 C     1.40160   2.94530   0.00490    13    20    12    11
 C    -1.93790   0.55910  -1.94980    14    15    43     5
 C    -0.83520   1.35870  -2.04970    15    14     8    39
 C     2.49020   1.32850   1.15650    16    19    17    11
 C     2.84540   0.00380   1.16210    17    16    18    22
 C     3.33110  -0.59610  -0.01040    18    21     2    17
 C     1.33280   1.70000   1.77370    19    20    16    26
 C     0.68460   2.70670   1.12720    20    13    19    42
 C     2.95360  -1.87370   0.01520    21    18    23    25
 C     2.00130  -0.97140   1.78200    22    23    17    27
 C     2.18860  -2.16540   1.10120    23    28    21    22
 C     1.04040  -2.71160  -0.64650    24    25     4    28
 C     2.15040  -2.08600  -1.06280    25    24    21     3
 C     0.44310   0.79590   2.29940    26    19    32    27
 C     0.70380  -0.59910   2.29490    27    26    22    35
 C     1.05510  -2.80030   0.72120    28    23    36    24
 C    -2.73700  -1.32030   1.10240    29    37    30    34
 C    -2.30570  -2.04700   0.00670    30    31    10    29
 C    -1.07080  -2.60330   0.02720    31    30     4    36
 C    -0.82000   1.33700   2.02550    32    33    26    42
 C    -1.90760   0.52490   1.92760    33    32    38    34
 C    -1.73390  -0.87400   1.95870    34    29    33    35
 C    -0.44510  -1.45830   2.04780    35    34    36    27
 C    -0.21010  -2.54850   1.15370    36    28    31    35
 C    -3.53430  -0.31580   0.64070    37    44    38    29
 C    -2.93250   0.82550   1.05460    38    37    33    40
 C    -0.66580   2.46670  -1.18230    39    12    15    41
 C    -2.62870   1.67070  -0.02190    40    41    38    43
 C    -1.47840   2.46970  -0.00300    41    40    42    39
 C    -0.66660   2.46240   1.17360    42    20    32    41
 C    -2.99910   0.85280  -1.11190    43    44    14    40
 C    -3.57010  -0.29210  -0.69380    44    37    43    10
