    44
C44-C2v-39                                                                      
 C    -1.14450   1.35540  -1.94690     1     8     2    14
 C    -2.37330   0.71020  -1.73230     2    13     1     3
 C    -2.37580  -0.69900  -1.73000     3    25     6     2
 C    -1.42700  -2.44690   0.12440     4    24     5    30
 C    -0.69550  -2.31300  -1.05570     5    10     4     6
 C    -1.14770  -1.33260  -1.95480     6     7     3     5
 C     0.00570  -0.68700  -2.38670     7     6     8    40
 C     0.01200   0.70720  -2.37780     8    19     1     7
 C     1.41960  -2.45100   0.12530     9    43    10    29
 C     0.69040  -2.31680  -1.05660    10     5     9    40
 C    -2.64570   1.85020   0.21920    11    12    13    22
 C    -1.41890   2.44040   0.10320    12    11    14    16
 C    -3.26560   1.09250  -0.74000    13    20    11     2
 C    -0.67670   2.35020  -1.07120    14    15    12     1
 C     0.70770   2.35630  -1.06570    15    14    18    19
 C    -0.68570   2.10900   1.25350    16    17    21    12
 C     0.68420   2.11770   1.25560    17    16    35    18
 C     1.44270   2.46010   0.11650    18    39    15    17
 C     1.16810   1.35790  -1.95510    19     8    42    15
 C    -3.81110  -0.00010  -0.13440    20    13    25    23
 C    -1.43490   1.16040   1.95680    21    22    16    26
 C    -2.69430   1.11490   1.38420    22    23    11    21
 C    -3.42540  -0.01540   1.18640    23    28    22    20
 C    -2.65920  -1.86570   0.23880    24    25     4    28
 C    -3.25460  -1.10530  -0.72880    25    24    20     3
 C    -0.72280  -0.00650   2.39630    26    36    21    27
 C    -1.42820  -1.18590   1.97500    27    28    30    26
 C    -2.69450  -1.13800   1.41030    28    23    24    27
 C     0.68140  -2.13540   1.28280    29    30    33     9
 C    -0.68590  -2.14380   1.28020    30    29    27     4
 C     3.37890  -0.00440   1.13300    31    34    32    37
 C     2.66100  -1.13080   1.39010    32    31    43    33
 C     1.41320  -1.17610   1.98680    33    32    29    36
 C     2.66240   1.12560   1.37650    34    31    39    35
 C     1.41360   1.16630   1.96950    35    34    17    36
 C     0.71050   0.00090   2.40000    36    35    33    26
 C     3.80070   0.01030  -0.17240    37    38    44    31
 C     3.27940   1.13140  -0.74730    38    37    39    42
 C     2.67310   1.88490   0.22340    39    18    38    34
 C     1.16110  -1.34320  -1.95810    40     7    41    10
 C     2.39060  -0.70930  -1.73430    41    44    40    42
 C     2.38910   0.70150  -1.73600    42    38    19    41
 C     2.65510  -1.87460   0.23360    43     9    44    32
 C     3.26540  -1.12080  -0.73440    44    43    37    41
