    44
C44-C1-65                                                                       
 C     2.76780  -1.49450  -0.71990     1     2    33     3
 C     3.02250  -0.25410  -1.16830     2     1    13     7
 C     1.56140  -2.08190  -1.00920     3     1    36     4
 C     0.60430  -1.49750  -1.90360     4     5     3    12
 C    -0.71470  -1.91750  -1.70860     5    14     6     4
 C    -1.10430  -2.64770  -0.58270     6    35    44     5
 C     3.48200   0.48130  -0.07380     7     8    27     2
 C     2.86640   1.67650  -0.17820     8     7     9    17
 C     2.15990   1.68140  -1.36700     9    24    13     8
 C    -1.61360   0.21880  -2.19690    10    14    25    11
 C    -0.32510   0.75890  -2.35020    11    10    23    12
 C     0.85740  -0.11510  -2.33250    12    13     4    11
 C     2.11410   0.43470  -1.93030    13     9     2    12
 C    -1.79680  -1.11800  -1.95610    14     5    10    41
 C     0.17810   1.30240   2.12490    15    28    16    20
 C     1.55340   1.25760   1.78100    16    15    26    17
 C     1.96930   2.16950   0.76270    17    18     8    16
 C     0.93480   2.78030   0.07850    18    19    24    17
 C    -0.38210   2.80920   0.38690    19    18    20    22
 C    -0.78090   2.19030   1.56290    20    37    19    15
 C    -2.37190   1.86800  -0.64370    21    25    22    38
 C    -1.13490   2.47450  -0.77060    22    21    23    19
 C    -0.16940   2.03480  -1.70610    23    24    22    11
 C     1.04330   2.38350  -1.22200    24     9    23    18
 C    -2.63780   0.78460  -1.44230    25    21    39    10
 C     2.21350  -0.00860   1.82060    26    27    16    30
 C     3.30870  -0.34620   1.00140    27    33     7    26
 C    -0.54360   0.11350   2.39700    28    32    29    15
 C     0.03370  -1.14090   2.18410    29    28    30    31
 C     1.42040  -1.19580   1.96720    30    34    29    26
 C    -0.81870  -2.05520   1.48140    31    35    43    29
 C    -1.86540   0.34870   2.08400    32    37    28    42
 C     3.07110  -1.60900   0.59570    33    34    27     1
 C     2.00150  -2.17530   1.15140    34    33    36    30
 C    -0.20460  -2.77950   0.42560    35    36     6    31
 C     1.13220  -2.69150   0.21150    36    35    34     3
 C    -2.00970   1.60790   1.60100    37    32    38    20
 C    -2.91070   1.52290   0.58670    38    37    40    21
 C    -3.39850  -0.15990  -0.77690    39    41    40    25
 C    -3.44090   0.24770   0.53730    40    39    38    42
 C    -2.85610  -1.36250  -1.11190    41    39    44    14
 C    -2.73070  -0.53360   1.47290    42    32    43    40
 C    -2.16020  -1.75660   1.12000    43    44    42    31
 C    -2.32810  -2.20220  -0.17840    44    41     6    43
