    44
C44-D2-85                                                                       
 C     0.08230  -3.03650  -0.65830     1     2    30     4
 C    -1.05440  -2.62080  -1.18850     2     1    24     7
 C     1.06220  -2.66840   1.19730     3     4    39    33
 C    -0.09560  -3.08970   0.69830     4     3    15     1
 C    -2.85890  -1.56110  -0.53490     5     6     7    22
 C    -3.24910  -0.59760   0.29910     6     5     8    10
 C    -2.02510  -2.55580  -0.20920     7     5     2    15
 C    -3.25750   0.63400  -0.30950     8     9     6    21
 C    -2.85320   1.56530   0.55210     9     8    12    11
 C    -2.41820  -0.46880   1.44270    10    11     6    16
 C    -2.24120   0.87650   1.57270    11    18    10     9
 C    -2.02610   2.55790   0.20290    12     9    13    19
 C    -1.05380   2.61630   1.17790    13    14    18    12
 C     0.07900   3.03380   0.64590    14    13    44    25
 C    -1.31960  -2.56280   0.99960    15     4     7    16
 C    -1.36170  -1.35310   1.78460    16    10    15    40
 C     0.08810   0.71500   2.22390    17    18    40    43
 C    -1.07460   1.47380   1.94640    18    11    13    17
 C    -1.32010   2.56350  -1.00600    19    25    12    20
 C    -1.36860   1.34760  -1.78160    20    21    19    28
 C    -2.42160   0.46130  -1.44140    21    22     8    20
 C    -2.24110  -0.87990  -1.56740    22    21    24     5
 C     0.08090  -0.71590  -2.22010    23    24    28    29
 C    -1.07830  -1.47780  -1.94780    24    22     2    23
 C    -0.08760   3.09600  -0.71550    25    26    14    19
 C     1.06140   2.67540  -1.22130    26    25    27    38
 C     1.09000   1.50720  -1.95200    27    34    26    28
 C    -0.08150   0.75250  -2.22040    28    27    23    20
 C     1.35330  -1.32900  -1.77320    29    35    30    23
 C     1.30910  -2.52360  -0.96510    30     1    33    29
 C     3.23230  -0.62430  -0.30810    31    32    37    35
 C     2.86350  -1.57380   0.55750    32    33    31    41
 C     2.04300  -2.56880   0.22400    33    32     3    30
 C     2.24820   0.88840  -1.58010    34    35    27    36
 C     2.41190  -0.44840  -1.44790    35    34    29    31
 C     2.85670   1.56530  -0.54350    36    37    38    34
 C     3.22770   0.60970   0.31570    37    36    31    42
 C     2.01690   2.55880  -0.22640    38    36    26    44
 C     1.09640  -1.50420   1.94270    39    41     3    40
 C    -0.07680  -0.75390   2.22030    40    39    17    16
 C     2.26640  -0.88860   1.58890    41    42    39    32
 C     2.42980   0.45680   1.46750    42    41    37    43
 C     1.36430   1.33100   1.78740    43    42    44    17
 C     1.29950   2.51830   0.97370    44    14    38    43
