    44
C44-C2-45                                                                       
 C    -3.47610   1.16180  -0.64210     1     5     2    27
 C    -2.54600   2.09740  -0.31040     2    34     1    13
 C     1.43010   2.05720   1.12800     3    14     4    39
 C     0.13020   2.37220   0.69990     4    33     3    12
 C    -2.87040   0.43740  -1.61770     5     6     1     7
 C    -2.94800  -0.87340  -1.28430     6     5    21    15
 C    -1.63510   0.94440  -1.96190     7     5     8    13
 C    -0.52760   0.12020  -2.29140     8     9     7    20
 C     0.75430   0.68800  -2.17040     9    22     8    11
 C     2.20880   1.84700  -0.97000    10    14    11    42
 C     0.93400   1.89510  -1.45230    11    10    12     9
 C    -0.14800   2.40700  -0.73520    12    11    13     4
 C    -1.44380   2.10010  -1.15320    13     2    12     7
 C     2.55940   2.09460   0.31850    14    10    44     3
 C    -3.52730  -0.94760  -0.01640    15    16    27     6
 C    -2.66380  -1.76060   0.65570    16    17    15    28
 C    -1.77320  -2.33570  -0.19760    17    19    16    21
 C     0.56210  -2.59780  -0.36920    18    32    19    24
 C    -0.57630  -2.58370   0.37280    19    17    18    29
 C    -0.63750  -1.30070  -2.02840    20    21    24     8
 C    -1.85820  -1.69680  -1.43050    21     6    17    20
 C     1.95800  -0.02450  -2.02710    22    42    23     9
 C     1.86390  -1.37170  -1.70710    23    22    40    24
 C     0.57460  -1.90950  -1.61130    24    23    20    18
 C    -2.92370   0.75690   1.40850    25    34    27    26
 C    -1.97080  -0.00930   2.06620    26    25    28    36
 C    -3.78390   0.33610   0.41060    27     1    15    25
 C    -1.86180  -1.35290   1.71930    28    26    16    29
 C    -0.57810  -1.90060   1.61190    29    28    19    30
 C     0.63440  -1.28330   2.01570    30    31    29    35
 C     1.84600  -1.66700   1.39090    31    37    32    30
 C     1.77450  -2.33570   0.17360    32    18    40    31
 C    -0.94390   1.87330   1.45150    33    34     4    36
 C    -2.22290   1.85480   0.98360    34     2    33    25
 C     0.51820   0.13520   2.31390    35    36    39    30
 C    -0.76500   0.69520   2.21600    36    35    26    33
 C     2.93860  -0.84700   1.24920    37    38    31    41
 C     2.88440   0.45560   1.61570    38    37    44    39
 C     1.64070   0.93520   1.97510    39    38    35     3
 C     2.68890  -1.79040  -0.66600    40    32    41    23
 C     3.54680  -0.94960  -0.00560    41    40    43    37
 C     2.90850   0.74480  -1.37760    42    10    22    43
 C     3.80730   0.34320  -0.39400    43    44    41    42
 C     3.51610   1.18700   0.64570    44    14    38    43
