    44
C44-C1-41                                                                       
 C    -2.54640   1.41460   1.30880     1     2     4     8
 C    -3.14240   0.25630   0.96890     2     1     6    24
 C    -1.40060   2.76650   0.09460     3     4    33    16
 C    -2.61260   2.22640   0.23270     4     3     1    25
 C    -0.45740  -2.07960   1.56840     5    20    12     7
 C    -2.58880  -0.95400   1.29530     6     2    22     7
 C    -1.31970  -1.00760   1.96590     7     5     6    10
 C    -1.29390   1.44900   1.86440     8     1    10    16
 C     0.76230   0.28760   2.26570     9    11    10    14
 C    -0.64770   0.25110   2.26840    10     9     8     7
 C     1.55660  -0.83930   2.01530    11    37    12     9
 C     0.93600  -1.96610   1.54270    12    11     5    40
 C     2.73580   0.89050   1.36220    13    37    17    14
 C     1.50910   1.39470   1.76760    14    13    15     9
 C     0.82090   2.38070   1.03210    15    16    14    19
 C    -0.55890   2.45020   1.17190    16    15     3     8
 C     3.38960   1.21560   0.20710    17    13    18    42
 C     2.52310   1.87940  -0.62040    18    44    17    19
 C     1.34320   2.50510  -0.29270    19    18    32    15
 C    -0.78210  -2.88660   0.47960    20    21    41     5
 C    -1.88640  -2.58040  -0.21030    21    22    20    26
 C    -2.84740  -1.74120   0.16700    22    21    23     6
 C    -3.16880  -0.87360  -0.85630    23    24    22    27
 C    -3.53680   0.32510  -0.36360    24    23    25     2
 C    -3.00230   1.48610  -0.83470    25     4    24    30
 C    -1.37960  -2.06580  -1.37820    26    34    27    21
 C    -2.08170  -0.95000  -1.74290    27    26    23    29
 C     0.12790   0.02240  -2.28940    28    31    29    36
 C    -1.31670   0.18360  -2.13190    29    27    30    28
 C    -1.84330   1.42970  -1.63420    30    33    25    29
 C     0.93960   1.16430  -2.01920    31    44    32    28
 C     0.40720   2.24610  -1.31590    32    33    31    19
 C    -0.92160   2.37020  -1.13520    33    32     3    30
 C    -0.02520  -2.23640  -1.44990    34    26    36    41
 C     2.16090  -1.23200  -1.48140    35    43    36    39
 C     0.81160  -1.24650  -1.96920    36    34    35    28
 C     2.75830  -0.45640   1.49540    37    13    11    38
 C     3.35880  -1.04150   0.39880    38    42    37    39
 C     2.51710  -1.92330  -0.26640    39    40    38    35
 C     1.45900  -2.56290   0.35880    40    41    39    12
 C     0.33660  -2.92600  -0.28530    41    40    20    34
 C     3.71910   0.01740  -0.38970    42    43    38    17
 C     2.93370  -0.09090  -1.49260    43    44    42    35
 C     2.25210   1.04910  -1.66950    44    43    31    18
