    44
C44-D2-75                                                                       
 C    -2.34310  -1.14320   1.52710     1    25     2     4
 C    -1.14640  -1.37810   2.17470     2     1     3    11
 C    -0.22820  -2.26610   1.63050     3     6     2    12
 C    -2.66600  -1.63880   0.25870     4    32     5     1
 C    -1.66180  -2.38560  -0.34480     5     6     4     8
 C    -0.54520  -2.75180   0.37060     6    17     5     3
 C    -1.62490  -0.84370  -2.19220     7    31     8    43
 C    -1.13120  -2.02310  -1.61950     8     7    40     5
 C     0.67760   0.13880   2.62150     9    11    21    10
 C     1.61210  -0.83760   2.19950    10    14    12     9
 C    -0.69560  -0.11780   2.61870    11     9    20     2
 C     1.14900  -2.02210   1.61550    12     3    10    13
 C     1.67240  -2.40210   0.34730    13    17    16    12
 C     2.63690  -0.15520   1.58610    14    22    15    10
 C     3.18080  -0.56070   0.40120    15    14    16    38
 C     2.66760  -1.64880  -0.27720    16    15    13    42
 C     0.56480  -2.77210  -0.38700    17     6    13    40
 C    -1.14540   2.02170   1.63080    18    20    19    26
 C     0.23800   2.28230   1.64010    19    30    21    18
 C    -1.63960   0.84490   2.20580    20    25    18    11
 C     1.15700   1.39120   2.17850    21    22    19     9
 C     2.35520   1.17120   1.53000    22    14    21    28
 C    -3.21490   0.54810   0.39760    23    25    32    24
 C    -2.67040   1.64510  -0.25490    24    23    26    35
 C    -2.67230   0.18210   1.58920    25    23     1    20
 C    -1.66730   2.39340   0.35670    26    27    24    18
 C    -0.54960   2.76030  -0.35830    27    30    26    33
 C     2.67780   1.64580   0.25920    28    38    22    29
 C     1.66930   2.40110  -0.33980    29    30    28    36
 C     0.56540   2.77880   0.38580    30    27    29    19
 C    -2.66610  -0.16390  -1.59120    31    32    35     7
 C    -3.21670  -0.56130  -0.41500    32    31    23     4
 C    -0.24340   2.26250  -1.61710    33    34    27    36
 C    -1.16330   1.38100  -2.16630    34    35    33    43
 C    -2.36070   1.16000  -1.53130    35    31    34    24
 C     1.13860   2.00520  -1.60580    36    37    33    29
 C     1.62720   0.82550  -2.18590    37    39    36    44
 C     3.20070   0.55820  -0.41320    38    39    28    15
 C     2.67130   0.15150  -1.59880    39    38    42    37
 C     0.24820  -2.28760  -1.64610    40    17    41     8
 C     1.16970  -1.40000  -2.19320    41    42    40    44
 C     2.37360  -1.17790  -1.55830    42    39    41    16
 C    -0.68610   0.12960  -2.61120    43    44    34     7
 C     0.68380  -0.13940  -2.61520    44    43    41    37
