    44
C44-C1-17                                                                       
 C    -2.92630   0.82430   1.13990     1    28     2     6
 C    -3.23250  -0.39400   0.56080     2     3     1    14
 C    -2.52620  -1.49990   0.95240     3     2     7     4
 C    -1.39740  -1.37270   1.81070     4    11     5     3
 C    -0.88970  -0.11020   2.19340     5     4     6    10
 C    -1.72660   0.97490   1.82220     6     1    31     5
 C    -2.15760  -2.44690  -0.00300     7     8    12     3
 C    -1.02950  -3.02500   0.41890     8    11     7    19
 C     1.02790   1.35610   1.86750     9    40    30    10
 C     0.55060   0.06070   2.22520    10     9     5    43
 C    -0.52820  -2.36620   1.46610    11     8     4    44
 C    -1.86830  -1.89170  -1.24100    12    13     7    15
 C    -2.42650  -0.69100  -1.58260    13    12    14    26
 C    -3.41190  -0.08100  -0.79760    14    21    13     2
 C    -0.50400  -2.14440  -1.46710    15    19    12    16
 C     0.36680  -1.14710  -1.96310    16    17    15    25
 C     1.71330  -1.26770  -1.58790    17    27    16    20
 C     1.19320  -2.75800   0.10520    18    20    19    44
 C    -0.02810  -3.01190  -0.46950    19     8    18    15
 C     2.19520  -2.12310  -0.55470    20    18    39    17
 C    -3.32140   1.26250  -0.90090    21    28    14    22
 C    -2.14480   1.49380  -1.56960    22    21    26    35
 C     2.07810   1.07350  -1.61290    23    27    36    24
 C     0.69470   1.30640  -1.83280    24    23    34    25
 C    -0.17240   0.17820  -2.17630    25    26    16    24
 C    -1.56750   0.32960  -2.03210    26    22    13    25
 C     2.56930  -0.21180  -1.57600    27    17    38    23
 C    -3.12790   1.86970   0.27490    28    21    29     1
 C    -1.98210   2.58810   0.27730    29    28    31    35
 C     0.15950   2.27790   1.28490    30    31     9    33
 C    -1.18160   2.16190   1.32510    31    30    29     6
 C     2.12710   2.32360   0.20390    32    36    33    40
 C     0.81930   2.67890   0.09450    33    32    30    34
 C     0.05870   2.37140  -1.06720    34    35    33    24
 C    -1.32360   2.41100  -0.94750    35    22    34    29
 C     2.92910   1.74720  -0.72510    36    32    37    23
 C     3.76130   0.82150  -0.12270    37    38    41    36
 C     3.62130  -0.37210  -0.72490    38    37    39    27
 C     3.16280  -1.37360   0.07610    39    38    20    42
 C     2.25020   1.52660   1.31400    40    41     9    32
 C     3.17580   0.58090   1.09190    41    40    37    42
 C     2.73390  -0.72100   1.25290    42    41    39    43
 C     1.46300  -1.02380   1.83200    43    44    42    10
 C     0.82140  -2.18400   1.36750    44    11    43    18
