    44
C44-D2-89                                                                       
 C    -2.51020  -1.67920  -0.48650     1     2    24     6
 C    -1.75400  -2.50940   0.27630     2     1     3    29
 C    -1.71030  -1.94250   1.51070     3     2     9     5
 C     0.65060  -2.22740   1.62080     4     5    43    30
 C    -0.53200  -1.70630   2.16040     5     3     4    40
 C    -3.06360  -0.62900   0.25200     6     7     9     1
 C    -3.07280   0.65020  -0.25670     7     6    14     8
 C    -2.48550   0.81780  -1.51530     8    11    26     7
 C    -2.47070  -0.81270   1.50290     9     3    12     6
 C    -1.75820   2.47660  -0.27270    10    14    11    18
 C    -1.71190   1.93940  -1.52000    11    10     8    17
 C    -1.80840   0.18740   2.19760    12     9    13    40
 C    -1.84120   1.48700   1.69240    13    14    12    23
 C    -2.53280   1.68220   0.50680    14    10    13     7
 C     0.57920  -0.37780  -2.60450    15    16    27    22
 C    -0.59470   0.38280  -2.61130    16    15    26    17
 C    -0.53010   1.72220  -2.16820    17    11    20    16
 C    -0.60240   2.86630   0.34860    18    10    19    23
 C     0.61210   2.86850  -0.35850    19    39    18    20
 C     0.65840   2.22370  -1.63300    20    17    21    19
 C     1.83670   1.46390  -1.69400    21    35    22    20
 C     1.82010   0.16840  -2.20220    22    34    21    15
 C    -0.65390   2.23770   1.63450    23    42    13    18
 C    -1.84730  -1.47040  -1.68980    24    26     1    25
 C    -0.66120  -2.22870  -1.62750    25    27    24    29
 C    -1.82330  -0.18210  -2.20430    26     8    24    16
 C     0.52870  -1.71460  -2.15230    27    28    25    15
 C     1.72380  -1.93370  -1.52310    28    34    31    27
 C    -0.60900  -2.88390  -0.35940    29     2    30    25
 C     0.60750  -2.86890   0.34190    30    31    29     4
 C     1.75820  -2.48490  -0.27920    31    36    28    30
 C     3.05550   0.62750   0.25020    32    33    35    37
 C     3.07760  -0.65200  -0.26370    33    32    34    36
 C     2.50610  -0.82620  -1.52500    34    28    22    33
 C     2.49820   1.67520  -0.48970    35    39    21    32
 C     2.53040  -1.68470   0.50140    36    31    43    33
 C     2.46920   0.81810   1.50780    37    38    44    32
 C     1.71120   1.95370   1.52550    38    39    37    42
 C     1.75420   2.50300   0.28880    39    38    35    19
 C    -0.58080  -0.37730   2.62360    40    41     5    12
 C     0.58810   0.38460   2.62610    41    40    42    44
 C     0.52990   1.71840   2.17580    42    38    23    41
 C     1.84600  -1.47740   1.69140    43    36    44     4
 C     1.81110  -0.18360   2.20440    44    37    43    41
