    44
C44-D3h-37                                                                      
 C    -2.68180   0.28200   1.76090     1     2    30     8
 C    -3.46060   0.92030   0.83880     2     1     5    25
 C     0.66780  -0.50470   2.27130     3     4    32    17
 C    -0.68570  -0.51410   2.27640     4     3     8    29
 C    -2.67070   1.77940   0.12740     5     9     2     6
 C    -1.40290   2.21140   0.45880     6     5    13     7
 C    -0.70970   1.77180   1.62300     7     8     6    18
 C    -1.41920   0.66590   2.16040     8     1     4     7
 C    -2.69430   1.41390  -1.18740     9     5    10    14
 C    -3.48570   0.29450  -1.23620    10    11     9    25
 C    -2.67720  -0.74810  -1.59030    11    10    27    16
 C     0.68380   2.25090  -0.69310    12    13    22    19
 C    -0.66880   2.24760  -0.72430    13    12     6    14
 C    -1.41960   1.57810  -1.69790    14     9    13    15
 C    -0.71060   0.53160  -2.35070    15    16    14    23
 C    -1.40890  -0.68580  -2.13120    16    11    21    15
 C     1.41650   0.67200   2.15790    17    42     3    18
 C     0.71780   1.79290   1.61620    18    17     7    19
 C     1.44630   2.26660   0.48220    19    44    12    18
 C     0.67610  -1.73230  -1.58380    20    21    36    24
 C    -0.67790  -1.72480  -1.56630    21    20    16    26
 C     1.42340   1.53810  -1.64030    22    41    12    23
 C     0.71590   0.51260  -2.34500    23    15    24    22
 C     1.43330  -0.71220  -2.18260    24    40    20    23
 C    -4.02680  -0.01910   0.00120    25     2    10    28
 C    -1.43070  -2.21940  -0.49600    26    27    21    37
 C    -2.71080  -1.69410  -0.60230    27    11    28    26
 C    -3.51400  -1.24300   0.41280    28    30    27    25
 C    -1.43390  -1.55440   1.70350    29    30     4    37
 C    -2.71610  -1.06570   1.51000    30    28     1    29
 C     2.67250  -1.02540   1.47580    31    34    42    32
 C     1.40690  -1.53040   1.67840    32    31     3    33
 C     0.70920  -2.31490   0.71450    33    32    37    36
 C     3.44700  -1.21510   0.36940    34    35    31    38
 C     2.69630  -1.70400  -0.65500    35    34    40    36
 C     1.42790  -2.23210  -0.51800    36    35    20    33
 C    -0.71690  -2.32050   0.73440    37    26    33    29
 C     3.98240   0.01820   0.02380    38    43    34    39
 C     3.46020   0.26100  -1.24200    39    40    41    38
 C     2.71540  -0.78810  -1.67180    40    39    35    24
 C     2.68980   1.38650  -1.11560    41    39    44    22
 C     2.70020   0.31720   1.77530    42    43    31    17
 C     3.49980   0.98450   0.88460    43    44    42    38
 C     2.73280   1.85320   0.17540    44    43    41    19
