    44
C44-S4-82                                                                       
 C     0.21650   2.70910  -0.05350     1     3    10    22
 C     2.38940   1.84540  -0.47720     2     3     5    27
 C     1.21640   2.40480  -0.93370     3     1     6     2
 C     3.20370  -0.15940  -0.64510     4     5    33    18
 C     2.78810   0.88350  -1.38160     5     4     7     2
 C     0.89570   1.72090  -2.08390     6     7     8     3
 C     1.82690   0.75950  -2.31240     7     5     6    20
 C    -0.38530   1.31180  -2.35270     8     6     9    13
 C    -1.49640   1.74990  -1.58190     9     8    16    10
 C    -1.14250   2.50550  -0.41030    10    11     1     9
 C    -1.80580   2.26620   0.76750    11    12    21    10
 C    -2.79730   1.36070   0.89170    12    17    11    30
 C    -0.20730  -0.05290  -2.72930    13    14    20     8
 C    -1.21520  -0.91690  -2.40750    14    13    41    15
 C    -2.38870  -0.48550  -1.83610    15    14    35    16
 C    -2.56590   0.82290  -1.39740    16    15    17     9
 C    -3.21870   0.65710  -0.17180    17    12    28    16
 C     2.56480  -1.40420  -0.79660    18    43     4    19
 C     1.49710  -1.56220  -1.74100    19    40    18    20
 C     1.15170  -0.41420  -2.54190    20     7    13    19
 C    -0.88140   2.08050   1.74090    21    11    22    23
 C     0.39160   2.35750   1.31600    22    21    26     1
 C    -1.24550   0.93770   2.43250    23    24    30    21
 C    -0.22230   0.06810   2.70360    24    23    25    39
 C     1.13670   0.43100   2.49650    25    31    24    26
 C     1.51540   1.60060   1.74310    26    22    27    25
 C     2.59650   1.41250   0.82870    27     2    33    26
 C    -3.24460  -0.68030   0.16330    28    35    17    29
 C    -2.59470  -0.80790   1.41000    29    30    28    38
 C    -2.42260   0.48770   1.87540    30    12    23    29
 C     1.81230  -0.74630   2.24610    31    32    34    25
 C     2.82150  -0.89990   1.36520    32    33    31    43
 C     3.24410   0.17660   0.68870    33    32     4    27
 C     0.88050  -1.71840   2.03680    34    31    39    42
 C    -2.81920  -1.38990  -0.89090    35    28    36    15
 C    -1.82720  -2.28870  -0.76050    36    35    41    37
 C    -1.14970  -2.52330   0.41510    37    36    44    38
 C    -1.51030  -1.73450   1.57210    38    39    29    37
 C    -0.38970  -1.29200   2.32180    39    34    38    24
 C     0.38170  -2.33000  -1.28510    40    41    44    19
 C    -0.88510  -2.05900  -1.71860    41    36    40    14
 C     1.24480  -2.45150   0.92720    42    44    43    34
 C     2.42030  -1.89110   0.49910    43    42    32    18
 C     0.21830  -2.73950   0.07070    44    42    40    37
