    44
C44-C2-79                                                                       
 C     2.74990   0.50900   1.31830     1     2    26     6
 C     2.45940   1.68960   0.67740     2     1     9     3
 C     1.26570   2.30170   1.01280     3     2     4    10
 C     0.40380   1.76240   2.00590     4    13     3     5
 C     0.61030   0.43680   2.51170     5     6     4    15
 C     1.86520  -0.13630   2.17980     6    33     1     5
 C     1.89200   1.81420  -1.56210     7     9    18     8
 C     0.68730   2.42950  -1.33180     8     7    10    23
 C     2.82840   1.50070  -0.64050     9     7    25     2
 C     0.41570   2.79320  -0.01920    10    11     8     3
 C    -0.85110   2.69340   0.42930    11    10    13    21
 C    -1.97490   1.45420   1.79120    12    13    39    16
 C    -0.85800   2.16200   1.67530    13    12    11     4
 C    -0.39750  -1.74760   1.97190    14    32    42    15
 C    -0.59780  -0.41920   2.49690    15    16    14     5
 C    -1.86640   0.13460   2.16290    16    12    44    15
 C     0.31460   0.61760  -2.57880    17    18    19    23
 C     1.63340   0.67490  -2.25010    18     7    17    28
 C    -0.29850  -0.60050  -2.56120    19    20    17    29
 C    -1.61580  -0.66640  -2.23020    20    37    19    24
 C    -1.96450   2.23430  -0.26540    21    11    39    22
 C    -1.69630   1.62760  -1.53370    22    24    21    23
 C    -0.34920   1.74170  -2.01270    23     8    17    22
 C    -2.37760   0.39200  -1.74720    24    20    41    22
 C     3.23730   0.19640  -0.79790    25    26     9    28
 C     3.31500  -0.39000   0.41820    26    27    25     1
 C     2.74160  -1.57480   0.68820    27    26    33    31
 C     2.38720  -0.38660  -1.75840    28    18    25    30
 C     0.35420  -1.72420  -1.98680    29    19    34    30
 C     1.71110  -1.62260  -1.52030    30    31    28    29
 C     1.96340  -2.25270  -0.26420    31    36    27    30
 C     0.86120  -2.16840   1.65030    32    33    36    14
 C     1.96550  -1.45310   1.81120    33    32    27     6
 C    -0.69230  -2.42570  -1.31830    34    37    35    29
 C    -0.41160  -2.82610  -0.01370    35    36    34    42
 C     0.86280  -2.74790   0.42180    36    35    32    31
 C    -1.88790  -1.80310  -1.55550    37    20    38    34
 C    -2.81760  -1.50260  -0.62170    38    37    43    41
 C    -2.77160   1.58580   0.67970    39    40    12    21
 C    -3.34300   0.39310   0.42360    40    39    41    44
 C    -3.23100  -0.18830  -0.79070    41    40    38    24
 C    -1.27540  -2.31330   1.00630    42    43    14    35
 C    -2.47240  -1.68560   0.70380    43    44    38    42
 C    -2.77620  -0.50790   1.32670    44    43    16    40
