    44
C44-C2-14                                                                       
 C     3.92550  -0.33820  -0.21070     1     3    22     2
 C     3.48910   0.89350  -0.65960     2    33     1     4
 C     3.33120  -1.25900  -0.97500     3     1     5     7
 C     2.47240   0.67500  -1.63430     4     5    15     2
 C     2.44540  -0.69000  -1.82450     5     3    10     4
 C     1.34890  -2.28760  -0.85720     6     8     7    10
 C     2.53730  -2.04990  -0.21090     7     3     6    21
 C     0.22420  -2.57940  -0.18240     8     6    11    19
 C    -0.01710  -0.74500  -2.12990     9    10    12    18
 C     1.23480  -1.33120  -1.87810    10     5     6     9
 C    -1.06160  -2.38790  -0.67230    11    28     8    12
 C    -1.24300  -1.39000  -1.69410    12    31    11     9
 C    -0.21940   2.58060  -0.17060    13    16    14    41
 C     1.05850   2.35520  -0.66780    14    32    13    15
 C     1.23390   1.36870  -1.70040    15     4    14    18
 C    -1.35270   2.29420  -0.84320    16    13    44    17
 C    -1.23760   1.30890  -1.83500    17    30    16    18
 C     0.00390   0.71890  -2.11740    18    17    15     9
 C     0.17460  -2.19690   1.17450    19    24    20     8
 C     1.21360  -1.42750   1.71380    20    19    21    25
 C     2.48670  -1.50630   1.08360    21    22     7    20
 C     3.40120  -0.46580   1.05530    22    23     1    21
 C     2.90660   0.72220   1.45340    23    22    26    33
 C    -1.13230  -2.00800   1.39530    24    19    28    34
 C     0.72960  -0.14320   2.24740    25    26    35    20
 C     1.65350   0.90880   2.01340    26    36    23    25
 C    -3.08990  -1.64500   0.39930    27    28    29    37
 C    -1.95850  -2.35920   0.37100    28    27    24    11
 C    -3.51220  -0.91810  -0.67160    29    27    42    31
 C    -2.46240   0.68320  -1.76350    30    43    31    17
 C    -2.47560  -0.68500  -1.60680    31    30    29    12
 C     1.93880   2.32800   0.38640    32    33    36    14
 C     3.06450   1.61880   0.40170    33    32     2    23
 C    -1.63390  -0.88610   1.98870    34    24    37    35
 C    -0.70820   0.15350   2.23840    35    34    25    40
 C     1.14000   2.04510   1.44390    36    41    32    26
 C    -2.87480  -0.72540   1.41520    37    38    34    27
 C    -3.34660   0.45180   0.98790    38    37    42    39
 C    -2.44330   1.50600   1.05600    39    38    44    40
 C    -1.18210   1.44290   1.71380    40    41    39    35
 C    -0.16480   2.24440   1.20210    41    36    40    13
 C    -3.95040   0.33000  -0.24810    42    43    38    29
 C    -3.38220   1.30540  -0.95740    43    42    44    30
 C    -2.56730   2.09150  -0.22750    44    43    16    39
