    44
C44-C1-67                                                                       
 C    -2.86760   1.44060   0.12000     1    28     2     4
 C    -2.97200   0.35930  -0.75790     2     3     1    14
 C    -2.96080  -0.91430  -0.23160     3     9     2     6
 C    -2.32220   1.25960   1.39920     4     5     1    31
 C    -2.18910  -0.03890   1.86920     5     6     4     8
 C    -2.61750  -1.09470   1.10760     6    10     5     3
 C     0.03280   0.43920   2.64430     7    44     8    30
 C    -0.99200  -0.46950   2.47140     8     7     5    40
 C    -2.24140  -1.90880  -0.85540     9    11     3    12
 C    -1.77530  -2.15140   1.26050    10    11     6    40
 C    -1.60860  -2.72530   0.04960    11    19    10     9
 C    -1.35900  -1.62850  -1.89620    12    16     9    13
 C    -1.21750  -0.31280  -2.38580    13    12    14    15
 C    -2.09640   0.66760  -1.84670    14    22    13     2
 C     0.13010   0.09710  -2.63960    15    18    20    13
 C    -0.22220  -2.37180  -1.60160    16    17    19    12
 C     1.05090  -1.94570  -1.77090    17    16    18    26
 C     1.26240  -0.73390  -2.42230    18    25    17    15
 C    -0.36600  -2.96910  -0.38110    19    11    16    43
 C     0.54720   1.40860  -2.27630    20    23    21    15
 C    -0.30910   2.27730  -1.66050    21    20    22    34
 C    -1.64320   1.95420  -1.58760    22    28    21    14
 C     1.83000   1.30430  -1.82280    23    25    20    32
 C     3.06770  -0.25730  -0.93400    24    25    36    27
 C     2.29740   0.04100  -1.99190    25    24    23    18
 C     1.74790  -2.23120  -0.55950    26    27    43    17
 C     2.75880  -1.36310  -0.14850    27    39    24    26
 C    -2.13810   2.40660  -0.44300    28    22    29     1
 C    -1.13000   2.84790   0.30890    29    28    31    34
 C    -0.04050   1.73570   2.08940    30    31     7    35
 C    -1.21720   2.14850   1.49930    31    30    29     4
 C     2.27740   1.84570  -0.61870    32    23    36    33
 C     1.30960   2.52740   0.18060    33    34    32    35
 C     0.06580   2.86200  -0.40460    34    29    33    21
 C     1.23140   2.01830   1.52890    35    38    30    33
 C     3.13370   0.85230  -0.11340    36    37    24    32
 C     2.99860   0.44170   1.16020    37    38    36    39
 C     2.06690   0.99800   1.94250    38    37    44    35
 C     2.72800  -0.91650   1.15300    39    27    37    41
 C    -0.68630  -1.79540   2.04090    40    10     8    42
 C     1.67240  -1.23130   2.00540    41    44    39    42
 C     0.66220  -2.15060   1.66370    42    41    43    40
 C     0.78200  -2.73880   0.35340    43    19    26    42
 C     1.31750   0.01780   2.50480    44    38     7    41
