    36
C36-Cs-4                                                                        
 C     3.31650   0.37670  -0.00920     1    22     3     2
 C     2.50080   1.49690  -0.00960     2     1    25     5
 C     2.91520  -0.32770   1.08720     3     6     1     9
 C     0.43570   2.03040   1.14580     4     5     7    12
 C     1.71290   1.51140   1.16270     5     4     6     2
 C     1.95060   0.30700   1.79170     6     3     5    14
 C    -0.07720   2.63380  -0.01020     7    36     4    24
 C     1.13880  -1.67560   1.32320     8    10     9    14
 C     2.35420  -1.50420   0.67310     9     3     8    18
 C     0.08670  -2.29080   0.68210    10    11     8    16
 C    -1.21350  -2.03010   1.03640    11    21    10    15
 C    -0.68470   1.36980   1.73900    12    35     4    13
 C    -0.49580  -0.00960   2.11490    13    14    15    12
 C     0.84110  -0.48900   2.05500    14     6    13     8
 C    -1.57950  -0.86390   1.73130    15    11    34    13
 C     0.10660  -2.35450  -0.74170    16    19    17    10
 C     1.17820  -1.72820  -1.35790    17    16    18    28
 C     2.39850  -1.52680  -0.71700    18    22     9    17
 C    -1.20570  -2.08970  -1.07770    19    21    16    26
 C    -2.96270  -1.21840   0.02330    20    21    30    34
 C    -2.05750  -2.18630  -0.01400    21    20    11    19
 C     2.96500  -0.34680  -1.10190    22     1    23    18
 C     1.98340   0.31530  -1.77170    23    22    25    28
 C     0.45590   2.05180  -1.17260    24    25     7    29
 C     1.73440   1.54850  -1.18360    25    24    23     2
 C    -1.53210  -0.88780  -1.72050    26    19    30    27
 C    -0.45560  -0.02650  -2.10160    27    28    26    29
 C     0.87970  -0.50680  -2.03780    28    23    27    17
 C    -0.64510   1.35330  -1.73730    29    32    24    27
 C    -2.68860  -0.41560  -1.06670    30    31    20    26
 C    -2.72560   0.87590  -0.65860    31    30    32    33
 C    -1.78670   1.77950  -1.05370    32    36    31    29
 C    -2.80830   0.89950   0.74100    33    34    35    31
 C    -2.78070  -0.40760   1.12680    34    33    20    15
 C    -1.85030   1.82300   1.09340    35    36    33    12
 C    -1.40730   2.51500   0.01770    36     7    35    32
