    36
C36-D6h-15                                                                      
 C     1.38000  -1.08960  -1.90050     1     5     4    25
 C    -1.38280  -1.09260  -1.90290     2    28     3    24
 C    -0.68460  -2.09080  -1.21930     3     4     2    14
 C     0.70250  -2.10280  -1.20900     4     3    13     1
 C     2.49770  -0.68080  -1.18920     5     8     6     1
 C     2.50530   0.69670  -1.19290     6     7     5    20
 C     2.48600   1.38910  -0.00630     7    16     6    10
 C     2.48430  -1.38270  -0.00980     8     5    13     9
 C     2.47240  -0.68540   1.18070     9    33    10     8
 C     2.47510   0.69280   1.18450    10    18     9     7
 C    -0.68990  -2.06790   1.20370    11    12    34    14
 C     0.70280  -2.08960   1.21460    12    11    13    33
 C     1.38890  -2.21450   0.00150    13     8     4    12
 C    -1.38940  -2.16680  -0.01110    14    36     3    11
 C     0.70940   2.09690   1.21910    15    17    18    16
 C     1.38520   2.21100  -0.00690    16     7    19    15
 C    -0.68010   2.08320   1.22070    17    15    32    22
 C     1.38940   1.09930   1.92690    18    10    15    30
 C     0.70560   2.09350  -1.22100    19    21    16    20
 C     1.39350   1.09480  -1.91930    20     6    25    19
 C    -0.68340   2.07520  -1.21360    21    19    22    23
 C    -1.36740   2.16290   0.00260    22    26    21    17
 C    -1.39730   1.09110  -1.90520    23    27    21    24
 C    -0.69260   0.00560  -2.44080    24    25    23     2
 C     0.69530   0.00550  -2.44600    25    24    20     1
 C    -2.48590   1.35940  -0.01130    26    22    27    29
 C    -2.51540   0.67740  -1.20860    27    28    26    23
 C    -2.51620  -0.69790  -1.20030    28    27    36     2
 C    -2.46990   0.68880   1.19780    29    32    26    35
 C     0.69880   0.00210   2.46780    30    31    33    18
 C    -0.69470  -0.00720   2.45580    31    30    32    34
 C    -1.37180   1.09580   1.92640    32    29    17    31
 C     1.38460  -1.09180   1.92070    33     9    12    30
 C    -1.39770  -1.08670   1.90450    34    35    11    31
 C    -2.51470  -0.69370   1.18910    35    36    29    34
 C    -2.52570  -1.37800  -0.00150    36    35    28    14
