    36
C36-Cs-8                                                                        
 C     1.53160   2.36170  -0.40950     1    22     4     2
 C     2.32170   1.39210  -0.94530     2     1     7    24
 C     2.20120   1.10800   1.21610     3     4    11     7
 C     1.38980   2.18060   0.91990     4     1     3    10
 C     2.32590  -1.39360  -0.95040     5    36     6    25
 C     2.91110  -0.67500   0.08130     6     7     5    16
 C     2.90870   0.68120   0.08270     7     6     2     3
 C    -1.91970   1.84770  -0.18750     8     9    15    17
 C    -0.66630   2.43230   0.01760     9     8    22    10
 C     0.04460   2.18250   1.24180    10     4    13     9
 C     1.69500  -0.00710   1.85990    11     3    16    12
 C     0.34170   0.01110   2.25180    12    11    13    33
 C    -0.48910   1.14720   2.02850    13    14    10    12
 C    -1.76620   0.69420   1.79770    14    13    15    34
 C    -2.60580   1.11120   0.78800    15    19    14     8
 C     2.20660  -1.11860   1.21310    16    35    11     6
 C    -2.07070   1.08000  -1.35770    17    18    20     8
 C    -2.85590   0.00940  -1.04390    18    19    27    17
 C    -3.20200  -0.00960   0.25360    19    18    15    31
 C    -0.94120   0.70150  -2.07940    20    21    17    23
 C     0.25350   1.39520  -1.92870    21    22    20    24
 C     0.31600   2.40390  -0.97850    22     1    21     9
 C    -0.95700  -0.70630  -2.07230    23    26    27    20
 C     1.49360   0.70520  -1.86360    24    25     2    21
 C     1.48350  -0.70760  -1.85910    25    24     5    26
 C     0.24400  -1.39100  -1.91900    26    23    30    25
 C    -2.08980  -1.07580  -1.34780    27    18    23    28
 C    -1.92950  -1.85450  -0.19260    28    29    27    31
 C    -0.67070  -2.42580   0.01100    29    28    30    32
 C     0.32790  -2.41460  -0.97270    30    36    26    29
 C    -2.59640  -1.11680   0.80790    31    34    19    28
 C     0.05120  -2.16210   1.23000    32    35    33    29
 C    -0.48170  -1.13170   2.02690    33    34    32    12
 C    -1.75820  -0.68650   1.81020    34    33    31    14
 C     1.40190  -2.18160   0.89480    35    36    16    32
 C     1.54800  -2.38460  -0.42340    36    30    35     5
