    36
C36-C2-12                                                                       
 C    -1.10590   0.97190  -2.12640     1    25     4     2
 C    -0.96700  -0.41790  -2.25300     2     3     1    11
 C     0.32110  -0.95580  -2.27320     3    12     6     2
 C    -0.01760   1.75940  -1.72570     4     5     1    28
 C     1.27110   1.23230  -1.78400     5     7     6     4
 C     1.41760  -0.11420  -2.10210     6    13     5     3
 C     2.17740   1.45740  -0.76650     7     8     5    34
 C     1.77540   2.07000   0.39760     8    36     7    27
 C    -1.59580  -2.00380  -0.54060     9    10    18    11
 C    -0.29240  -2.48880  -0.61210    10    12    19     9
 C    -2.00050  -0.96940  -1.42670    11    17     9     2
 C     0.64250  -2.04690  -1.49100    12    10    14     3
 C     2.38290  -0.69710  -1.30230    13    34    14     6
 C     1.84170  -1.86270  -0.83480    14    13    12    32
 C    -2.85000   0.26650   0.43240    15    16    17    22
 C    -2.35810  -0.67190   1.29240    16    15    18    24
 C    -2.74620   0.12120  -0.93840    17    25    15    11
 C    -1.80310  -1.83450   0.83350    18    16    20     9
 C     0.30360  -2.52270   0.63290    19    20    10    32
 C    -0.62480  -2.06520   1.51450    20    19    18    29
 C    -1.29100   1.22280   1.78000    21    22    24    23
 C    -2.19770   1.46280   0.75630    22    26    21    15
 C     0.00130   1.74550   1.71370    23    21    31    27
 C    -1.41840  -0.12020   2.13190    24    16    21    29
 C    -2.18130   1.26780  -1.38780    25     1    17    26
 C    -1.79450   2.10820  -0.39390    26    25    22    28
 C     0.43780   2.44810   0.53930    27     8    28    23
 C    -0.45670   2.46650  -0.55310    28    26    27     4
 C    -0.32480  -0.96860   2.30720    29    20    24    30
 C     0.96250  -0.42960   2.24850    30    29    31    33
 C     1.09650   0.96440   2.11990    31    36    23    30
 C     1.61280  -2.04140   0.54210    32    19    14    33
 C     1.99920  -0.98020   1.40850    33    35    32    30
 C     2.84940   0.26650  -0.45250    34    13    35     7
 C     2.74760   0.11680   0.92280    35    36    34    33
 C     2.18250   1.24500   1.39240    36    31    35     8
